# generated using pymatgen
data_InBiO3
_symmetry_space_group_name_H-M   'P 1'
_cell_length_a   5.67835500
_cell_length_b   6.09561000
_cell_length_c   8.20360800
_cell_angle_alpha   90.00000000
_cell_angle_beta   90.00000000
_cell_angle_gamma   90.00000000
_symmetry_Int_Tables_number   1
_chemical_formula_structural   InBiO3
_chemical_formula_sum   'In4 Bi4 O12'
_cell_volume   283.95179152
_cell_formula_units_Z   4
loop_
 _symmetry_equiv_pos_site_id
 _symmetry_equiv_pos_as_xyz
  1  'x, y, z'
loop_
 _atom_site_type_symbol
 _atom_site_label
 _atom_site_symmetry_multiplicity
 _atom_site_fract_x
 _atom_site_fract_y
 _atom_site_fract_z
 _atom_site_occupancy
  In  In0  1  0.50000000  0.00000000  0.50000000  1
  In  In1  1  0.50000000  0.00000000  0.00000000  1
  In  In2  1  0.00000000  0.50000000  0.00000000  1
  In  In3  1  0.00000000  0.50000000  0.50000000  1
  Bi  Bi4  1  0.01210100  0.95481400  0.25000000  1
  Bi  Bi5  1  0.98789900  0.04518600  0.75000000  1
  Bi  Bi6  1  0.48789900  0.45481400  0.25000000  1
  Bi  Bi7  1  0.51210100  0.54518600  0.75000000  1
  O  O8  1  0.36682400  0.95044600  0.75000000  1
  O  O9  1  0.86682400  0.54955400  0.25000000  1
  O  O10  1  0.17212500  0.18397600  0.05841600  1
  O  O11  1  0.82787500  0.81602400  0.94158400  1
  O  O12  1  0.32787500  0.68397600  0.44158400  1
  O  O13  1  0.63317600  0.04955400  0.25000000  1
  O  O14  1  0.17212500  0.18397600  0.44158400  1
  O  O15  1  0.67212500  0.31602400  0.55841600  1
  O  O16  1  0.32787500  0.68397600  0.05841600  1
  O  O17  1  0.13317600  0.45044600  0.75000000  1
  O  O18  1  0.82787500  0.81602400  0.55841600  1
  O  O19  1  0.67212500  0.31602400  0.94158400  1
