# generated using pymatgen
data_PuGaO3
_symmetry_space_group_name_H-M   'P 1'
_cell_length_a   5.47348871
_cell_length_b   5.52258702
_cell_length_c   7.72093757
_cell_angle_alpha   90.00000000
_cell_angle_beta   90.00000000
_cell_angle_gamma   90.00000000
_symmetry_Int_Tables_number   1
_chemical_formula_structural   PuGaO3
_chemical_formula_sum   'Pu4 Ga4 O12'
_cell_volume   233.38709353
_cell_formula_units_Z   4
loop_
 _symmetry_equiv_pos_site_id
 _symmetry_equiv_pos_as_xyz
  1  'x, y, z'
loop_
 _atom_site_type_symbol
 _atom_site_label
 _atom_site_symmetry_multiplicity
 _atom_site_fract_x
 _atom_site_fract_y
 _atom_site_fract_z
 _atom_site_occupancy
  Ga  Ga0  1  0.49999920  0.00000000  0.00000000  1
  Ga  Ga1  1  0.00000000  0.49999936  0.00000000  1
  Ga  Ga2  1  0.49999920  0.00000000  0.50000016  1
  Ga  Ga3  1  0.00000000  0.49999936  0.50000016  1
  O  O4  1  0.70748296  0.29323576  0.03863002  1
  O  O5  1  0.79251648  0.79323693  0.03863002  1
  O  O6  1  0.07536875  0.48472210  0.24999943  1
  O  O7  1  0.42463045  0.98472328  0.24999943  1
  O  O8  1  0.70748296  0.29323576  0.46136884  1
  O  O9  1  0.79251648  0.79323693  0.46136884  1
  O  O10  1  0.20748193  0.20676360  0.53863148  1
  O  O11  1  0.29251727  0.70676478  0.53863148  1
  O  O12  1  0.57536978  0.01527726  0.74999959  1
  O  O13  1  0.92462966  0.51527844  0.74999959  1
  O  O14  1  0.20748193  0.20676360  0.96136900  1
  O  O15  1  0.29251727  0.70676478  0.96136900  1
  Pu  Pu16  1  0.99337192  0.03861415  0.24999943  1
  Pu  Pu17  1  0.50662752  0.53861532  0.24999943  1
  Pu  Pu18  1  0.49337272  0.46138521  0.74999959  1
  Pu  Pu19  1  0.00662831  0.96138458  0.74999959  1
