# generated using pymatgen
data_SrHfO3
_symmetry_space_group_name_H-M   'P 1'
_cell_length_a   5.81690294
_cell_length_b   5.81690294
_cell_length_c   8.22876400
_cell_angle_alpha   90.00000000
_cell_angle_beta   90.00000000
_cell_angle_gamma   90.61642581
_symmetry_Int_Tables_number   1
_chemical_formula_structural   SrHfO3
_chemical_formula_sum   'Sr4 Hf4 O12'
_cell_volume   278.41530527
_cell_formula_units_Z   4
loop_
 _symmetry_equiv_pos_site_id
 _symmetry_equiv_pos_as_xyz
  1  'x, y, z'
loop_
 _atom_site_type_symbol
 _atom_site_label
 _atom_site_symmetry_multiplicity
 _atom_site_fract_x
 _atom_site_fract_y
 _atom_site_fract_z
 _atom_site_occupancy
  Sr  Sr0  1  0.99040500  0.00959500  0.75000000  1
  Sr  Sr1  1  0.00959500  0.99040500  0.25000000  1
  Sr  Sr2  1  0.49387900  0.50612100  0.75000000  1
  Sr  Sr3  1  0.50612100  0.49387900  0.25000000  1
  Hf  Hf4  1  0.50000000  0.00000000  0.00000000  1
  Hf  Hf5  1  0.50000000  0.00000000  0.50000000  1
  Hf  Hf6  1  0.00000000  0.50000000  0.00000000  1
  Hf  Hf7  1  0.00000000  0.50000000  0.50000000  1
  O  O8  1  0.96017600  0.45185100  0.75000000  1
  O  O9  1  0.03982400  0.54814900  0.25000000  1
  O  O10  1  0.45185100  0.96017600  0.25000000  1
  O  O11  1  0.54814900  0.03982400  0.75000000  1
  O  O12  1  0.21815100  0.78184900  0.54280100  1
  O  O13  1  0.78184900  0.21815100  0.04280100  1
  O  O14  1  0.78184900  0.21815100  0.45719900  1
  O  O15  1  0.21815100  0.78184900  0.95719900  1
  O  O16  1  0.28420200  0.28420200  0.00000000  1
  O  O17  1  0.71579800  0.71579800  0.50000000  1
  O  O18  1  0.71579800  0.71579800  0.00000000  1
  O  O19  1  0.28420200  0.28420200  0.50000000  1
