# generated using pymatgen
data_NdMgO3
_symmetry_space_group_name_H-M   'P 1'
_cell_length_a   5.38298205
_cell_length_b   5.77149180
_cell_length_c   7.75052083
_cell_angle_alpha   90.00000000
_cell_angle_beta   90.00000000
_cell_angle_gamma   90.00000000
_symmetry_Int_Tables_number   1
_chemical_formula_structural   NdMgO3
_chemical_formula_sum   'Nd4 Mg4 O12'
_cell_volume   240.79191615
_cell_formula_units_Z   4
loop_
 _symmetry_equiv_pos_site_id
 _symmetry_equiv_pos_as_xyz
  1  'x, y, z'
loop_
 _atom_site_type_symbol
 _atom_site_label
 _atom_site_symmetry_multiplicity
 _atom_site_fract_x
 _atom_site_fract_y
 _atom_site_fract_z
 _atom_site_occupancy
  Mg  Mg0  1  0.49999981  0.00000000  0.00000000  1
  Mg  Mg1  1  0.00000000  0.50000071  0.00000000  1
  Mg  Mg2  1  0.49999981  0.00000000  0.49999995  1
  Mg  Mg3  1  0.00000000  0.50000071  0.49999995  1
  Nd  Nd4  1  0.98005343  0.06898563  0.24999997  1
  Nd  Nd5  1  0.51994786  0.56898461  0.24999997  1
  Nd  Nd6  1  0.48005176  0.43101335  0.74999992  1
  Nd  Nd7  1  0.01994805  0.93101406  0.74999992  1
  O  O8  1  0.69180428  0.29926751  0.05018759  1
  O  O9  1  0.80819701  0.79926822  0.05018759  1
  O  O10  1  0.09699456  0.46788076  0.24999997  1
  O  O11  1  0.40300524  0.96787801  0.24999997  1
  O  O12  1  0.69180428  0.29926751  0.44981235  1
  O  O13  1  0.80819701  0.79926822  0.44981235  1
  O  O14  1  0.19180447  0.20073146  0.55018754  1
  O  O15  1  0.30819720  0.70073217  0.55018754  1
  O  O16  1  0.59699437  0.03211995  0.74999992  1
  O  O17  1  0.90300505  0.53212066  0.74999992  1
  O  O18  1  0.19180447  0.20073146  0.94981230  1
  O  O19  1  0.30819720  0.70073217  0.94981230  1
