# generated using pymatgen
data_ScVO3
_symmetry_space_group_name_H-M   'P 1'
_cell_length_a   5.40277200
_cell_length_b   7.81713000
_cell_length_c   5.10902500
_cell_angle_alpha   89.99944111
_cell_angle_beta   90.00002182
_cell_angle_gamma   90.00006846
_symmetry_Int_Tables_number   1
_chemical_formula_structural   ScVO3
_chemical_formula_sum   'Sc4 V4 O12'
_cell_volume   215.77543592
_cell_formula_units_Z   4
loop_
 _symmetry_equiv_pos_site_id
 _symmetry_equiv_pos_as_xyz
  1  'x, y, z'
loop_
 _atom_site_type_symbol
 _atom_site_label
 _atom_site_symmetry_multiplicity
 _atom_site_fract_x
 _atom_site_fract_y
 _atom_site_fract_z
 _atom_site_occupancy
  Sc  Sc0  1  0.06131000  0.24999800  0.98109100  1
  Sc  Sc1  1  0.43869200  0.74999900  0.48109200  1
  Sc  Sc2  1  0.56130800  0.24999800  0.51891200  1
  Sc  Sc3  1  0.93869300  0.75000000  0.01891200  1
  V  V4  1  0.99999900  0.00000100  0.50000200  1
  V  V5  1  0.99999600  0.50000100  0.49999500  1
  V  V6  1  0.50000300  0.99999900  0.00000100  1
  V  V7  1  0.50000200  0.49999800  0.00000000  1
  O  O8  1  0.07448100  0.75000200  0.64522200  1
  O  O9  1  0.19226100  0.57542300  0.18387200  1
  O  O10  1  0.19226300  0.92457800  0.18387100  1
  O  O11  1  0.30774100  0.07542200  0.68387500  1
  O  O12  1  0.30773400  0.42457700  0.68386700  1
  O  O13  1  0.42551900  0.25000400  0.14522200  1
  O  O14  1  0.57448200  0.74999800  0.85477800  1
  O  O15  1  0.69226100  0.57542200  0.31613100  1
  O  O16  1  0.69226000  0.92457900  0.31612700  1
  O  O17  1  0.80773800  0.07542400  0.81612600  1
  O  O18  1  0.80773900  0.42457900  0.81612700  1
  O  O19  1  0.92551800  0.24999800  0.35477600  1
