# generated using pymatgen
data_NiPbO3
_symmetry_space_group_name_H-M   'P 1'
_cell_length_a   5.26420360
_cell_length_b   5.47897026
_cell_length_c   7.75631788
_cell_angle_alpha   90.00000000
_cell_angle_beta   90.00000000
_cell_angle_gamma   90.00000000
_symmetry_Int_Tables_number   1
_chemical_formula_structural   NiPbO3
_chemical_formula_sum   'Ni4 Pb4 O12'
_cell_volume   223.71093895
_cell_formula_units_Z   4
loop_
 _symmetry_equiv_pos_site_id
 _symmetry_equiv_pos_as_xyz
  1  'x, y, z'
loop_
 _atom_site_type_symbol
 _atom_site_label
 _atom_site_symmetry_multiplicity
 _atom_site_fract_x
 _atom_site_fract_y
 _atom_site_fract_z
 _atom_site_occupancy
  Ni  Ni0  1  0.49999966  0.00000000  0.00000000  1
  Ni  Ni1  1  0.00000000  0.50000089  0.00000000  1
  Ni  Ni2  1  0.49999966  0.00000000  0.50000014  1
  Ni  Ni3  1  0.00000000  0.50000089  0.50000014  1
  O  O4  1  0.69142842  0.30651745  0.06881229  1
  O  O5  1  0.80857245  0.80651651  0.06881229  1
  O  O6  1  0.13112715  0.43662402  0.25000007  1
  O  O7  1  0.36887251  0.93662308  0.25000007  1
  O  O8  1  0.69142842  0.30651745  0.43118785  1
  O  O9  1  0.80857245  0.80651651  0.43118785  1
  O  O10  1  0.19142877  0.19348344  0.56881243  1
  O  O11  1  0.30857089  0.69348250  0.56881243  1
  O  O12  1  0.63112681  0.06337687  0.75000020  1
  O  O13  1  0.86887217  0.56337594  0.75000020  1
  O  O14  1  0.19142877  0.19348344  0.93118798  1
  O  O15  1  0.30857089  0.69348250  0.93118798  1
  Pb  Pb16  1  0.97356607  0.06510530  0.25000007  1
  Pb  Pb17  1  0.52643291  0.56510619  0.25000007  1
  Pb  Pb18  1  0.47356641  0.43489376  0.75000020  1
  Pb  Pb19  1  0.02643325  0.93489465  0.75000020  1
