# generated using pymatgen
data_SmGaO3
_symmetry_space_group_name_H-M   'P 1'
_cell_length_a   5.36231247
_cell_length_b   5.58554938
_cell_length_c   7.67639411
_cell_angle_alpha   90.00000000
_cell_angle_beta   90.00000000
_cell_angle_gamma   90.00000000
_symmetry_Int_Tables_number   1
_chemical_formula_structural   SmGaO3
_chemical_formula_sum   'Sm4 Ga4 O12'
_cell_volume   229.91921926
_cell_formula_units_Z   4
loop_
 _symmetry_equiv_pos_site_id
 _symmetry_equiv_pos_as_xyz
  1  'x, y, z'
loop_
 _atom_site_type_symbol
 _atom_site_label
 _atom_site_symmetry_multiplicity
 _atom_site_fract_x
 _atom_site_fract_y
 _atom_site_fract_z
 _atom_site_occupancy
  Ga  Ga0  1  0.50000070  0.00000000  0.00000000  1
  Ga  Ga1  1  0.00000000  0.49999916  0.00000000  1
  Ga  Ga2  1  0.50000070  0.00000000  0.50000038  1
  Ga  Ga3  1  0.00000000  0.49999916  0.50000038  1
  O  O4  1  0.70141381  0.29868682  0.04975253  1
  O  O5  1  0.79858830  0.79868777  0.04975253  1
  O  O6  1  0.09489003  0.47303673  0.24999889  1
  O  O7  1  0.40510881  0.97303768  0.24999889  1
  O  O8  1  0.70141381  0.29868682  0.45024525  1
  O  O9  1  0.79858830  0.79868777  0.45024525  1
  O  O10  1  0.20141310  0.20131234  0.54975291  1
  O  O11  1  0.29858760  0.70131150  0.54975291  1
  O  O12  1  0.59489073  0.02696243  0.74999927  1
  O  O13  1  0.90510951  0.52696159  0.74999927  1
  O  O14  1  0.20141310  0.20131234  0.95024564  1
  O  O15  1  0.29858760  0.70131150  0.95024564  1
  Sm  Sm16  1  0.98395795  0.06067443  0.24999889  1
  Sm  Sm17  1  0.51604415  0.56067359  0.24999889  1
  Sm  Sm18  1  0.48395725  0.43932474  0.74999927  1
  Sm  Sm19  1  0.01604345  0.93932569  0.74999927  1
