# generated using pymatgen
data_SrIrO3
_symmetry_space_group_name_H-M   'P 1'
_cell_length_a   5.54999942
_cell_length_b   5.67391587
_cell_length_c   7.89067464
_cell_angle_alpha   90.00000000
_cell_angle_beta   90.00000000
_cell_angle_gamma   90.00000000
_symmetry_Int_Tables_number   1
_chemical_formula_structural   SrIrO3
_chemical_formula_sum   'Sr4 Ir4 O12'
_cell_volume   248.47915722
_cell_formula_units_Z   4
loop_
 _symmetry_equiv_pos_site_id
 _symmetry_equiv_pos_as_xyz
  1  'x, y, z'
loop_
 _atom_site_type_symbol
 _atom_site_label
 _atom_site_symmetry_multiplicity
 _atom_site_fract_x
 _atom_site_fract_y
 _atom_site_fract_z
 _atom_site_occupancy
  Ir  Ir0  1  0.50000005  0.00000000  0.00000000  1
  Ir  Ir1  1  0.00000000  0.50000036  0.00000000  1
  Ir  Ir2  1  0.50000005  0.00000000  0.50000034  1
  Ir  Ir3  1  0.00000000  0.50000036  0.50000034  1
  O  O4  1  0.70408296  0.29414606  0.04025765  1
  O  O5  1  0.79591720  0.79414819  0.04025765  1
  O  O6  1  0.07934776  0.47684352  0.25000017  1
  O  O7  1  0.42065049  0.97684388  0.25000017  1
  O  O8  1  0.70408296  0.29414606  0.45974269  1
  O  O9  1  0.79591720  0.79414819  0.45974269  1
  O  O10  1  0.20408471  0.20585430  0.54025799  1
  O  O11  1  0.29591535  0.70585291  0.54025799  1
  O  O12  1  0.57934961  0.02315685  0.75000051  1
  O  O13  1  0.92065055  0.52315721  0.75000051  1
  O  O14  1  0.20408471  0.20585430  0.95974176  1
  O  O15  1  0.29591535  0.70585291  0.95974176  1
  Sr  Sr16  1  0.99078028  0.04414588  0.25000017  1
  Sr  Sr17  1  0.50921807  0.54414448  0.25000017  1
  Sr  Sr18  1  0.49078023  0.45585449  0.75000051  1
  Sr  Sr19  1  0.00921982  0.95585485  0.75000051  1
