# generated using pymatgen
data_YbTaO3
_symmetry_space_group_name_H-M   'P 1'
_cell_length_a   5.41009838
_cell_length_b   5.63948987
_cell_length_c   7.79757022
_cell_angle_alpha   90.00000000
_cell_angle_beta   90.00000000
_cell_angle_gamma   90.00000000
_symmetry_Int_Tables_number   1
_chemical_formula_structural   YbTaO3
_chemical_formula_sum   'Yb4 Ta4 O12'
_cell_volume   237.90538800
_cell_formula_units_Z   4
loop_
 _symmetry_equiv_pos_site_id
 _symmetry_equiv_pos_as_xyz
  1  'x, y, z'
loop_
 _atom_site_type_symbol
 _atom_site_label
 _atom_site_symmetry_multiplicity
 _atom_site_fract_x
 _atom_site_fract_y
 _atom_site_fract_z
 _atom_site_occupancy
  O  O0  1  0.69646053  0.29753223  0.04927176  1
  O  O1  1  0.80354176  0.79753313  0.04927176  1
  O  O2  1  0.09382084  0.47161003  0.24999967  1
  O  O3  1  0.40617930  0.97161093  0.24999967  1
  O  O4  1  0.69646053  0.29753223  0.45072759  1
  O  O5  1  0.80354176  0.79753313  0.45072759  1
  O  O6  1  0.19646038  0.20246867  0.54927239  1
  O  O7  1  0.30354161  0.70246602  0.54927239  1
  O  O8  1  0.59382099  0.02838909  0.74999902  1
  O  O9  1  0.90617945  0.52838822  0.74999902  1
  O  O10  1  0.19646038  0.20246867  0.95072821  1
  O  O11  1  0.30354161  0.70246602  0.95072821  1
  Ta  Ta12  1  0.50000015  0.00000000  0.00000000  1
  Ta  Ta13  1  0.00000000  0.50000090  0.00000000  1
  Ta  Ta14  1  0.50000015  0.00000000  0.50000063  1
  Ta  Ta15  1  0.00000000  0.50000090  0.50000063  1
  Yb  Yb16  1  0.98634805  0.05946283  0.24999967  1
  Yb  Yb17  1  0.51365240  0.55946195  0.24999967  1
  Yb  Yb18  1  0.48634790  0.44053807  0.74999902  1
  Yb  Yb19  1  0.01365040  0.94053897  0.74999902  1
