# generated using pymatgen
data_KNbO3
_symmetry_space_group_name_H-M   'P 1'
_cell_length_a   4.13066084
_cell_length_b   4.13066084
_cell_length_c   4.01755100
_cell_angle_alpha   90.00000000
_cell_angle_beta   90.00000000
_cell_angle_gamma   90.35217280
_symmetry_Int_Tables_number   1
_chemical_formula_structural   KNbO3
_chemical_formula_sum   'K1 Nb1 O3'
_cell_volume   68.54760260
_cell_formula_units_Z   1
loop_
 _symmetry_equiv_pos_site_id
 _symmetry_equiv_pos_as_xyz
  1  'x, y, z'
loop_
 _atom_site_type_symbol
 _atom_site_label
 _atom_site_symmetry_multiplicity
 _atom_site_fract_x
 _atom_site_fract_y
 _atom_site_fract_z
 _atom_site_occupancy
  K  K0  1  0.48983100  0.51016900  0.50000000  1
  Nb  Nb1  1  0.00484400  0.99515600  0.00000000  1
  O  O2  1  0.97160900  0.53797600  0.00000000  1
  O  O3  1  0.46202400  0.02839100  0.00000000  1
  O  O4  1  0.96369200  0.03630800  0.50000000  1
