# generated using pymatgen
data_PuMgO3
_symmetry_space_group_name_H-M   'P 1'
_cell_length_a   5.33221786
_cell_length_b   5.67344318
_cell_length_c   7.62870965
_cell_angle_alpha   90.00000000
_cell_angle_beta   90.00000000
_cell_angle_gamma   90.00000000
_symmetry_Int_Tables_number   1
_chemical_formula_structural   PuMgO3
_chemical_formula_sum   'Pu4 Mg4 O12'
_cell_volume   230.78399168
_cell_formula_units_Z   4
loop_
 _symmetry_equiv_pos_site_id
 _symmetry_equiv_pos_as_xyz
  1  'x, y, z'
loop_
 _atom_site_type_symbol
 _atom_site_label
 _atom_site_symmetry_multiplicity
 _atom_site_fract_x
 _atom_site_fract_y
 _atom_site_fract_z
 _atom_site_occupancy
  Mg  Mg0  1  0.50000020  0.00000000  0.00000000  1
  Mg  Mg1  1  0.00000000  0.49999972  0.00000000  1
  Mg  Mg2  1  0.50000020  0.00000000  0.49999937  1
  Mg  Mg3  1  0.00000000  0.49999972  0.49999937  1
  O  O4  1  0.68166757  0.31586110  0.05823921  1
  O  O5  1  0.81833303  0.81586082  0.05823921  1
  O  O6  1  0.12028391  0.45312695  0.25000034  1
  O  O7  1  0.37971629  0.95312667  0.25000034  1
  O  O8  1  0.68166757  0.31586110  0.44176016  1
  O  O9  1  0.81833303  0.81586082  0.44176016  1
  O  O10  1  0.18166737  0.18413862  0.55823989  1
  O  O11  1  0.31833283  0.68413834  0.55823989  1
  O  O12  1  0.62028411  0.04687277  0.74999971  1
  O  O13  1  0.87971649  0.54687249  0.74999971  1
  O  O14  1  0.18166737  0.18413862  0.94176084  1
  O  O15  1  0.31833283  0.68413834  0.94176084  1
  Pu  Pu16  1  0.98457155  0.06642175  0.25000034  1
  Pu  Pu17  1  0.51542905  0.56642147  0.25000034  1
  Pu  Pu18  1  0.48457135  0.43357797  0.74999971  1
  Pu  Pu19  1  0.01542885  0.93357769  0.74999971  1
