# generated using pymatgen
data_MgTlCl3
_symmetry_space_group_name_H-M   'P 1'
_cell_length_a   7.07139200
_cell_length_b   7.16081700
_cell_length_c   10.10526500
_cell_angle_alpha   90.00000000
_cell_angle_beta   90.00000000
_cell_angle_gamma   90.00000000
_symmetry_Int_Tables_number   1
_chemical_formula_structural   MgTlCl3
_chemical_formula_sum   'Mg4 Tl4 Cl12'
_cell_volume   511.69973839
_cell_formula_units_Z   4
loop_
 _symmetry_equiv_pos_site_id
 _symmetry_equiv_pos_as_xyz
  1  'x, y, z'
loop_
 _atom_site_type_symbol
 _atom_site_label
 _atom_site_symmetry_multiplicity
 _atom_site_fract_x
 _atom_site_fract_y
 _atom_site_fract_z
 _atom_site_occupancy
  Mg  Mg0  1  0.00000000  0.00000000  0.00000000  1
  Mg  Mg1  1  0.50000000  0.50000000  0.00000000  1
  Mg  Mg2  1  0.00000000  0.00000000  0.50000000  1
  Mg  Mg3  1  0.50000000  0.50000000  0.50000000  1
  Tl  Tl4  1  0.01699800  0.44883100  0.25000000  1
  Tl  Tl5  1  0.98300200  0.55116900  0.75000000  1
  Tl  Tl6  1  0.51699800  0.05116900  0.75000000  1
  Tl  Tl7  1  0.48300200  0.94883100  0.25000000  1
  Cl  Cl8  1  0.28212000  0.21788100  0.02537000  1
  Cl  Cl9  1  0.71788000  0.78211900  0.97463000  1
  Cl  Cl10  1  0.78212000  0.28211900  0.97463000  1
  Cl  Cl11  1  0.71788000  0.78211900  0.52537000  1
  Cl  Cl12  1  0.21788000  0.71788100  0.02537000  1
  Cl  Cl13  1  0.28212000  0.21788100  0.47463000  1
  Cl  Cl14  1  0.21788000  0.71788100  0.47463000  1
  Cl  Cl15  1  0.78212000  0.28211900  0.52537000  1
  Cl  Cl16  1  0.55089600  0.50086700  0.25000000  1
  Cl  Cl17  1  0.44910400  0.49913300  0.75000000  1
  Cl  Cl18  1  0.05089600  0.99913300  0.75000000  1
  Cl  Cl19  1  0.94910400  0.00086700  0.25000000  1
