# generated using pymatgen
data_SrTlO3
_symmetry_space_group_name_H-M   'P 1'
_cell_length_a   5.87400850
_cell_length_b   6.13087971
_cell_length_c   8.33814345
_cell_angle_alpha   90.00000000
_cell_angle_beta   90.00000000
_cell_angle_gamma   90.00000000
_symmetry_Int_Tables_number   1
_chemical_formula_structural   SrTlO3
_chemical_formula_sum   'Sr4 Tl4 O12'
_cell_volume   300.28022200
_cell_formula_units_Z   4
loop_
 _symmetry_equiv_pos_site_id
 _symmetry_equiv_pos_as_xyz
  1  'x, y, z'
loop_
 _atom_site_type_symbol
 _atom_site_label
 _atom_site_symmetry_multiplicity
 _atom_site_fract_x
 _atom_site_fract_y
 _atom_site_fract_z
 _atom_site_occupancy
  O  O0  1  0.70322336  0.30202354  0.05254647  1
  O  O1  1  0.79677617  0.80202356  0.05254647  1
  O  O2  1  0.10401415  0.45842524  0.25000050  1
  O  O3  1  0.39598513  0.95842363  0.25000050  1
  O  O4  1  0.70322336  0.30202354  0.44745332  1
  O  O5  1  0.79677617  0.80202356  0.44745332  1
  O  O6  1  0.20322238  0.19797648  0.55254746  1
  O  O7  1  0.29677689  0.69797814  0.55254746  1
  O  O8  1  0.60401513  0.04157478  0.75000029  1
  O  O9  1  0.89598611  0.54157481  0.75000029  1
  O  O10  1  0.20322238  0.19797648  0.94745312  1
  O  O11  1  0.29677689  0.69797814  0.94745312  1
  Sr  Sr12  1  0.98450147  0.05833584  0.25000050  1
  Sr  Sr13  1  0.51549806  0.55833749  0.25000050  1
  Sr  Sr14  1  0.48450390  0.44166419  0.75000029  1
  Sr  Sr15  1  0.01549708  0.94166421  0.75000029  1
  Tl  Tl16  1  0.50000098  0.00000000  0.00000000  1
  Tl  Tl17  1  0.00000000  0.50000002  0.00000000  1
  Tl  Tl18  1  0.50000098  0.00000000  0.49999979  1
  Tl  Tl19  1  0.00000000  0.50000002  0.49999979  1
