# generated using pymatgen
data_SiSnO3
_symmetry_space_group_name_H-M   'P 1'
_cell_length_a   4.01045000
_cell_length_b   4.01045000
_cell_length_c   4.01045000
_cell_angle_alpha   90.00000000
_cell_angle_beta   90.00000000
_cell_angle_gamma   90.00000000
_symmetry_Int_Tables_number   1
_chemical_formula_structural   SiSnO3
_chemical_formula_sum   'Si1 Sn1 O3'
_cell_volume   64.50291157
_cell_formula_units_Z   1
loop_
 _symmetry_equiv_pos_site_id
 _symmetry_equiv_pos_as_xyz
  1  'x, y, z'
loop_
 _atom_site_type_symbol
 _atom_site_label
 _atom_site_symmetry_multiplicity
 _atom_site_fract_x
 _atom_site_fract_y
 _atom_site_fract_z
 _atom_site_occupancy
  O  O0  1  0.49999875  0.49999875  0.00000000  1
  O  O1  1  0.49999875  0.00000000  0.49999875  1
  O  O2  1  0.00000000  0.49999875  0.49999875  1
  Si  Si3  1  0.00000000  0.00000000  0.00000000  1
  Sn  Sn4  1  0.49999875  0.49999875  0.49999875  1
