# generated using pymatgen
data_SmTmO3
_symmetry_space_group_name_H-M   'P 1'
_cell_length_a   5.73125500
_cell_length_b   5.99296500
_cell_length_c   8.40330300
_cell_angle_alpha   90.00000000
_cell_angle_beta   90.00000000
_cell_angle_gamma   90.00000000
_symmetry_Int_Tables_number   1
_chemical_formula_structural   SmTmO3
_chemical_formula_sum   'Sm4 Tm4 O12'
_cell_volume   288.63001805
_cell_formula_units_Z   4
loop_
 _symmetry_equiv_pos_site_id
 _symmetry_equiv_pos_as_xyz
  1  'x, y, z'
loop_
 _atom_site_type_symbol
 _atom_site_label
 _atom_site_symmetry_multiplicity
 _atom_site_fract_x
 _atom_site_fract_y
 _atom_site_fract_z
 _atom_site_occupancy
  Sm  Sm0  1  0.98315400  0.05266400  0.25000000  1
  Sm  Sm1  1  0.48315400  0.44733600  0.75000000  1
  Sm  Sm2  1  0.51684600  0.55266400  0.25000000  1
  Sm  Sm3  1  0.01684600  0.94733600  0.75000000  1
  Tm  Tm4  1  0.50000000  0.00000000  0.00000000  1
  Tm  Tm5  1  0.50000000  0.00000000  0.50000000  1
  Tm  Tm6  1  0.00000000  0.50000000  0.00000000  1
  Tm  Tm7  1  0.00000000  0.50000000  0.50000000  1
  O  O8  1  0.63526700  0.06695700  0.75000000  1
  O  O9  1  0.18722500  0.19026800  0.57191900  1
  O  O10  1  0.18722500  0.19026800  0.92808100  1
  O  O11  1  0.68722500  0.30973200  0.42808100  1
  O  O12  1  0.68722500  0.30973200  0.07191900  1
  O  O13  1  0.13526700  0.43304300  0.25000000  1
  O  O14  1  0.86473300  0.56695700  0.75000000  1
  O  O15  1  0.31277500  0.69026800  0.92808100  1
  O  O16  1  0.31277500  0.69026800  0.57191900  1
  O  O17  1  0.81277500  0.80973200  0.07191900  1
  O  O18  1  0.81277500  0.80973200  0.42808100  1
  O  O19  1  0.36473300  0.93304300  0.25000000  1
