# generated using pymatgen
data_TmScO3
_symmetry_space_group_name_H-M   'P 1'
_cell_length_a   5.40953000
_cell_length_b   5.70879100
_cell_length_c   7.94428300
_cell_angle_alpha   90.00000000
_cell_angle_beta   90.00000000
_cell_angle_gamma   90.00000000
_symmetry_Int_Tables_number   1
_chemical_formula_structural   TmScO3
_chemical_formula_sum   'Tm4 Sc4 O12'
_cell_volume   245.33436393
_cell_formula_units_Z   4
loop_
 _symmetry_equiv_pos_site_id
 _symmetry_equiv_pos_as_xyz
  1  'x, y, z'
loop_
 _atom_site_type_symbol
 _atom_site_label
 _atom_site_symmetry_multiplicity
 _atom_site_fract_x
 _atom_site_fract_y
 _atom_site_fract_z
 _atom_site_occupancy
  Tm  Tm0  1  0.01830700  0.43691800  0.25000000  1
  Tm  Tm1  1  0.98169300  0.56308200  0.75000000  1
  Tm  Tm2  1  0.51830700  0.06308200  0.75000000  1
  Tm  Tm3  1  0.48169300  0.93691800  0.25000000  1
  Sc  Sc4  1  0.00000000  0.00000000  0.00000000  1
  Sc  Sc5  1  0.50000000  0.50000000  0.00000000  1
  Sc  Sc6  1  0.00000000  0.00000000  0.50000000  1
  Sc  Sc7  1  0.50000000  0.50000000  0.50000000  1
  O  O8  1  0.31446900  0.18882900  0.07019200  1
  O  O9  1  0.68553100  0.81117100  0.92980800  1
  O  O10  1  0.81446900  0.31117100  0.92980800  1
  O  O11  1  0.68553100  0.81117100  0.57019200  1
  O  O12  1  0.18553100  0.68882900  0.07019200  1
  O  O13  1  0.31446900  0.18882900  0.42980800  1
  O  O14  1  0.18553100  0.68882900  0.42980800  1
  O  O15  1  0.81446900  0.31117100  0.57019200  1
  O  O16  1  0.63559700  0.56269200  0.25000000  1
  O  O17  1  0.36440300  0.43730800  0.75000000  1
  O  O18  1  0.13559700  0.93730800  0.75000000  1
  O  O19  1  0.86440300  0.06269200  0.25000000  1
