# generated using pymatgen
data_YbWO3
_symmetry_space_group_name_H-M   'P 1'
_cell_length_a   5.32633194
_cell_length_b   5.63260503
_cell_length_c   7.70289288
_cell_angle_alpha   90.00000000
_cell_angle_beta   90.00000000
_cell_angle_gamma   90.00000000
_symmetry_Int_Tables_number   1
_chemical_formula_structural   YbWO3
_chemical_formula_sum   'Yb4 W4 O12'
_cell_volume   231.09544502
_cell_formula_units_Z   4
loop_
 _symmetry_equiv_pos_site_id
 _symmetry_equiv_pos_as_xyz
  1  'x, y, z'
loop_
 _atom_site_type_symbol
 _atom_site_label
 _atom_site_symmetry_multiplicity
 _atom_site_fract_x
 _atom_site_fract_y
 _atom_site_fract_z
 _atom_site_occupancy
  O  O0  1  0.69951517  0.29367584  0.04659678  1
  O  O1  1  0.80048334  0.79367539  0.04659678  1
  O  O2  1  0.09466552  0.47321621  0.24999958  1
  O  O3  1  0.40533523  0.97321576  0.24999958  1
  O  O4  1  0.69951517  0.29367584  0.45340238  1
  O  O5  1  0.80048334  0.79367539  0.45340238  1
  O  O6  1  0.19951629  0.20632372  0.54659724  1
  O  O7  1  0.30048446  0.70632504  0.54659724  1
  O  O8  1  0.59466628  0.02678334  0.75000004  1
  O  O9  1  0.90533411  0.52678467  0.75000004  1
  O  O10  1  0.19951629  0.20632372  0.95340285  1
  O  O11  1  0.30048446  0.70632504  0.95340285  1
  W  W12  1  0.49999888  0.00000000  0.00000000  1
  W  W13  1  0.00000000  0.50000133  0.00000000  1
  W  W14  1  0.49999888  0.00000000  0.50000046  1
  W  W15  1  0.00000000  0.50000133  0.50000046  1
  Yb  Yb16  1  0.98116491  0.06476932  0.24999958  1
  Yb  Yb17  1  0.51883360  0.56476710  0.24999958  1
  Yb  Yb18  1  0.48116603  0.43523201  0.75000004  1
  Yb  Yb19  1  0.01883473  0.93523156  0.75000004  1
