# generated using pymatgen
data_BeBiO3
_symmetry_space_group_name_H-M   'P 1'
_cell_length_a   5.09956846
_cell_length_b   5.36699284
_cell_length_c   7.15074624
_cell_angle_alpha   90.00000000
_cell_angle_beta   90.00000000
_cell_angle_gamma   90.00000000
_symmetry_Int_Tables_number   1
_chemical_formula_structural   BeBiO3
_chemical_formula_sum   'Be4 Bi4 O12'
_cell_volume   195.71125857
_cell_formula_units_Z   4
loop_
 _symmetry_equiv_pos_site_id
 _symmetry_equiv_pos_as_xyz
  1  'x, y, z'
loop_
 _atom_site_type_symbol
 _atom_site_label
 _atom_site_symmetry_multiplicity
 _atom_site_fract_x
 _atom_site_fract_y
 _atom_site_fract_z
 _atom_site_occupancy
  Be  Be0  1  0.50000113  0.00000000  0.00000000  1
  Be  Be1  1  0.00000000  0.50000067  0.00000000  1
  Be  Be2  1  0.50000113  0.00000000  0.50000096  1
  Be  Be3  1  0.00000000  0.50000067  0.50000096  1
  Bi  Bi4  1  0.98980728  0.06565502  0.24999908  1
  Bi  Bi5  1  0.51019219  0.56565568  0.24999908  1
  Bi  Bi6  1  0.48980811  0.43434379  0.75000004  1
  Bi  Bi7  1  0.01019302  0.93434445  0.75000004  1
  O  O8  1  0.70203587  0.30069912  0.04058458  1
  O  O9  1  0.79796360  0.80069792  0.04058458  1
  O  O10  1  0.08164809  0.47907275  0.24999908  1
  O  O11  1  0.41835108  0.97907341  0.24999908  1
  O  O12  1  0.70203587  0.30069912  0.45941499  1
  O  O13  1  0.79796360  0.80069792  0.45941499  1
  O  O14  1  0.20203474  0.19930155  0.54058414  1
  O  O15  1  0.29796247  0.69930222  0.54058414  1
  O  O16  1  0.58164922  0.02092792  0.75000004  1
  O  O17  1  0.91835222  0.52092672  0.75000004  1
  O  O18  1  0.20203474  0.19930155  0.95941455  1
  O  O19  1  0.29796247  0.69930222  0.95941455  1
