# generated using pymatgen
data_YAgO3
_symmetry_space_group_name_H-M   'P 1'
_cell_length_a   5.49373900
_cell_length_b   6.02797200
_cell_length_c   7.93753600
_cell_angle_alpha   90.00000000
_cell_angle_beta   90.00000000
_cell_angle_gamma   90.00000000
_symmetry_Int_Tables_number   1
_chemical_formula_structural   YAgO3
_chemical_formula_sum   'Y4 Ag4 O12'
_cell_volume   262.86027456
_cell_formula_units_Z   4
loop_
 _symmetry_equiv_pos_site_id
 _symmetry_equiv_pos_as_xyz
  1  'x, y, z'
loop_
 _atom_site_type_symbol
 _atom_site_label
 _atom_site_symmetry_multiplicity
 _atom_site_fract_x
 _atom_site_fract_y
 _atom_site_fract_z
 _atom_site_occupancy
  Y  Y0  1  0.03118700  0.91445900  0.75000000  1
  Y  Y1  1  0.53118700  0.58554100  0.25000000  1
  Y  Y2  1  0.46881300  0.41445900  0.75000000  1
  Y  Y3  1  0.96881300  0.08554100  0.25000000  1
  Ag  Ag4  1  0.00000000  0.50000000  0.50000000  1
  Ag  Ag5  1  0.50000000  0.00000000  0.50000000  1
  Ag  Ag6  1  0.50000000  0.00000000  0.00000000  1
  Ag  Ag7  1  0.00000000  0.50000000  0.00000000  1
  O  O8  1  0.69640100  0.31978200  0.42773800  1
  O  O9  1  0.19640100  0.18021800  0.57226200  1
  O  O10  1  0.80359900  0.81978200  0.07226200  1
  O  O11  1  0.30359900  0.68021800  0.92773800  1
  O  O12  1  0.30359900  0.68021800  0.57226200  1
  O  O13  1  0.80359900  0.81978200  0.42773800  1
  O  O14  1  0.19640100  0.18021800  0.92773800  1
  O  O15  1  0.69640100  0.31978200  0.07226200  1
  O  O16  1  0.14866200  0.43622400  0.25000000  1
  O  O17  1  0.64866200  0.06377600  0.75000000  1
  O  O18  1  0.35133800  0.93622400  0.25000000  1
  O  O19  1  0.85133800  0.56377600  0.75000000  1
