# generated using pymatgen
data_CaTiO3
_symmetry_space_group_name_H-M   'P 1'
_cell_length_a   5.46298438
_cell_length_b   5.46298438
_cell_length_c   7.69697100
_cell_angle_alpha   90.00000000
_cell_angle_beta   90.00000000
_cell_angle_gamma   90.62957377
_symmetry_Int_Tables_number   1
_chemical_formula_structural   CaTiO3
_chemical_formula_sum   'Ca4 Ti4 O12'
_cell_volume   229.69606174
_cell_formula_units_Z   4
loop_
 _symmetry_equiv_pos_site_id
 _symmetry_equiv_pos_as_xyz
  1  'x, y, z'
loop_
 _atom_site_type_symbol
 _atom_site_label
 _atom_site_symmetry_multiplicity
 _atom_site_fract_x
 _atom_site_fract_y
 _atom_site_fract_z
 _atom_site_occupancy
  Ca  Ca0  1  0.51281100  0.48718900  0.25000000  1
  Ca  Ca1  1  0.48718900  0.51281100  0.75000000  1
  Ca  Ca2  1  0.00480100  0.99519900  0.25000000  1
  Ca  Ca3  1  0.99519900  0.00480100  0.75000000  1
  Ti  Ti4  1  0.00000000  0.50000000  0.50000000  1
  Ti  Ti5  1  0.00000000  0.50000000  0.00000000  1
  Ti  Ti6  1  0.50000000  0.00000000  0.50000000  1
  Ti  Ti7  1  0.50000000  0.00000000  0.00000000  1
  O  O8  1  0.94425200  0.45334500  0.25000000  1
  O  O9  1  0.05574800  0.54665500  0.75000000  1
  O  O10  1  0.54665500  0.05574800  0.25000000  1
  O  O11  1  0.45334500  0.94425200  0.75000000  1
  O  O12  1  0.28578800  0.71421200  0.04883300  1
  O  O13  1  0.71421200  0.28578800  0.54883300  1
  O  O14  1  0.71421200  0.28578800  0.95116700  1
  O  O15  1  0.28578800  0.71421200  0.45116700  1
  O  O16  1  0.21043500  0.21043500  0.00000000  1
  O  O17  1  0.78956500  0.78956500  0.50000000  1
  O  O18  1  0.78956500  0.78956500  0.00000000  1
  O  O19  1  0.21043500  0.21043500  0.50000000  1
