# generated using pymatgen
data_EuTmO3
_symmetry_space_group_name_H-M   'P 1'
_cell_length_a   5.80306174
_cell_length_b   5.99988415
_cell_length_c   8.18106286
_cell_angle_alpha   90.00000000
_cell_angle_beta   90.00000000
_cell_angle_gamma   90.00000000
_symmetry_Int_Tables_number   1
_chemical_formula_structural   EuTmO3
_chemical_formula_sum   'Eu4 Tm4 O12'
_cell_volume   284.84577694
_cell_formula_units_Z   4
loop_
 _symmetry_equiv_pos_site_id
 _symmetry_equiv_pos_as_xyz
  1  'x, y, z'
loop_
 _atom_site_type_symbol
 _atom_site_label
 _atom_site_symmetry_multiplicity
 _atom_site_fract_x
 _atom_site_fract_y
 _atom_site_fract_z
 _atom_site_occupancy
  Eu  Eu0  1  0.97680160  0.05538774  0.25000052  1
  Eu  Eu1  1  0.52319795  0.55538739  0.25000052  1
  Eu  Eu2  1  0.47680175  0.44461358  0.75000035  1
  Eu  Eu3  1  0.02319810  0.94461324  0.75000035  1
  O  O4  1  0.70490548  0.29229898  0.06898615  1
  O  O5  1  0.79509407  0.79229863  0.06898615  1
  O  O6  1  0.12718631  0.44281022  0.25000052  1
  O  O7  1  0.37281354  0.94280987  0.25000052  1
  O  O8  1  0.70490548  0.29229898  0.43101368  1
  O  O9  1  0.79509407  0.79229863  0.43101368  1
  O  O10  1  0.20490563  0.20770068  0.56898719  1
  O  O11  1  0.29509422  0.70770200  0.56898719  1
  O  O12  1  0.62718616  0.05719110  0.75000035  1
  O  O13  1  0.87281339  0.55719076  0.75000035  1
  O  O14  1  0.20490563  0.20770068  0.93101350  1
  O  O15  1  0.29509422  0.70770200  0.93101350  1
  Tm  Tm16  1  0.49999985  0.00000000  0.00000000  1
  Tm  Tm17  1  0.00000000  0.49999965  0.00000000  1
  Tm  Tm18  1  0.49999985  0.00000000  0.49999983  1
  Tm  Tm19  1  0.00000000  0.49999965  0.49999983  1
