# generated using pymatgen
data_KCaBr3
_symmetry_space_group_name_H-M   'P 1'
_cell_length_a   5.72159197
_cell_length_b   5.72159197
_cell_length_c   5.71630700
_cell_angle_alpha   89.89823650
_cell_angle_beta   89.89823650
_cell_angle_gamma   89.88657753
_symmetry_Int_Tables_number   1
_chemical_formula_structural   KCaBr3
_chemical_formula_sum   'K1 Ca1 Br3'
_cell_volume   187.13158374
_cell_formula_units_Z   1
loop_
 _symmetry_equiv_pos_site_id
 _symmetry_equiv_pos_as_xyz
  1  'x, y, z'
loop_
 _atom_site_type_symbol
 _atom_site_label
 _atom_site_symmetry_multiplicity
 _atom_site_fract_x
 _atom_site_fract_y
 _atom_site_fract_z
 _atom_site_occupancy
  K  K0  1  0.99753300  0.99753300  0.00008200  1
  Ca  Ca1  1  0.49479400  0.49479400  0.48311900  1
  Br  Br2  1  0.49555600  0.99773100  0.48484100  1
  Br  Br3  1  0.50793700  0.50793700  0.98384100  1
  Br  Br4  1  0.99773100  0.49555600  0.48484100  1
