# generated using pymatgen
data_BaAuO3
_symmetry_space_group_name_H-M   'P 1'
_cell_length_a   5.88279754
_cell_length_b   5.85152555
_cell_length_c   8.47768783
_cell_angle_alpha   90.00000000
_cell_angle_beta   90.00000000
_cell_angle_gamma   90.00000000
_symmetry_Int_Tables_number   1
_chemical_formula_structural   BaAuO3
_chemical_formula_sum   'Ba4 Au4 O12'
_cell_volume   291.83033175
_cell_formula_units_Z   4
loop_
 _symmetry_equiv_pos_site_id
 _symmetry_equiv_pos_as_xyz
  1  'x, y, z'
loop_
 _atom_site_type_symbol
 _atom_site_label
 _atom_site_symmetry_multiplicity
 _atom_site_fract_x
 _atom_site_fract_y
 _atom_site_fract_z
 _atom_site_occupancy
  Au  Au0  1  0.50000021  0.00000000  0.00000000  1
  Au  Au1  1  0.00000000  0.49999953  0.00000000  1
  Au  Au2  1  0.50000021  0.00000000  0.50000072  1
  Au  Au3  1  0.00000000  0.49999953  0.50000072  1
  Ba  Ba4  1  0.99697465  0.02159779  0.24999977  1
  Ba  Ba5  1  0.50302428  0.52159731  0.24999977  1
  Ba  Ba6  1  0.49697614  0.47840345  0.75000049  1
  Ba  Ba7  1  0.00302577  0.97840297  0.75000049  1
  O  O8  1  0.72155806  0.27904005  0.03031605  1
  O  O9  1  0.77844086  0.77903958  0.03031605  1
  O  O10  1  0.45243610  0.00440740  0.24999977  1
  O  O11  1  0.04756411  0.50440692  0.24999977  1
  O  O12  1  0.72155806  0.27904005  0.46968349  1
  O  O13  1  0.77844086  0.77903958  0.46968349  1
  O  O14  1  0.22155785  0.22095947  0.53031559  1
  O  O15  1  0.27844065  0.72096071  0.53031559  1
  O  O16  1  0.95243801  0.49559213  0.75000049  1
  O  O17  1  0.54756261  0.99559336  0.75000049  1
  O  O18  1  0.22155785  0.22095947  0.96968421  1
  O  O19  1  0.27844065  0.72096071  0.96968421  1
