# generated using pymatgen
data_LiLaO3
_symmetry_space_group_name_H-M   'P 1'
_cell_length_a   5.29624614
_cell_length_b   5.68865046
_cell_length_c   7.59786570
_cell_angle_alpha   90.00000000
_cell_angle_beta   90.00000000
_cell_angle_gamma   90.00000000
_symmetry_Int_Tables_number   1
_chemical_formula_structural   LiLaO3
_chemical_formula_sum   'Li4 La4 O12'
_cell_volume   228.91224381
_cell_formula_units_Z   4
loop_
 _symmetry_equiv_pos_site_id
 _symmetry_equiv_pos_as_xyz
  1  'x, y, z'
loop_
 _atom_site_type_symbol
 _atom_site_label
 _atom_site_symmetry_multiplicity
 _atom_site_fract_x
 _atom_site_fract_y
 _atom_site_fract_z
 _atom_site_occupancy
  La  La0  1  0.97761884  0.07463282  0.25000047  1
  La  La1  1  0.52238320  0.57463190  0.25000047  1
  La  La2  1  0.47761753  0.42536802  0.75000010  1
  La  La3  1  0.02238189  0.92536886  0.75000010  1
  Li  Li4  1  0.50000131  0.00000000  0.00000000  1
  Li  Li5  1  0.00000000  0.50000084  0.00000000  1
  Li  Li6  1  0.50000131  0.00000000  0.49999962  1
  Li  Li7  1  0.00000000  0.50000084  0.49999962  1
  O  O8  1  0.69067976  0.28411484  0.03941765  1
  O  O9  1  0.80932039  0.78411568  0.03941765  1
  O  O10  1  0.44823068  0.05032828  0.25000047  1
  O  O11  1  0.05177063  0.55032736  0.25000047  1
  O  O12  1  0.69067976  0.28411484  0.46058198  1
  O  O13  1  0.80932039  0.78411568  0.46058198  1
  O  O14  1  0.19068034  0.21588424  0.53941859  1
  O  O15  1  0.30932097  0.71588508  0.53941859  1
  O  O16  1  0.94822821  0.44967256  0.75000010  1
  O  O17  1  0.55177005  0.94967164  0.75000010  1
  O  O18  1  0.19068034  0.21588424  0.96058160  1
  O  O19  1  0.30932097  0.71588508  0.96058160  1
