# generated using pymatgen
data_KAgBr3
_symmetry_space_group_name_H-M   'P 1'
_cell_length_a   5.41822900
_cell_length_b   5.41822900
_cell_length_c   5.41708600
_cell_angle_alpha   90.00000000
_cell_angle_beta   90.00000000
_cell_angle_gamma   90.00000000
_symmetry_Int_Tables_number   1
_chemical_formula_structural   KAgBr3
_chemical_formula_sum   'K1 Ag1 Br3'
_cell_volume   159.03050689
_cell_formula_units_Z   1
loop_
 _symmetry_equiv_pos_site_id
 _symmetry_equiv_pos_as_xyz
  1  'x, y, z'
loop_
 _atom_site_type_symbol
 _atom_site_label
 _atom_site_symmetry_multiplicity
 _atom_site_fract_x
 _atom_site_fract_y
 _atom_site_fract_z
 _atom_site_occupancy
  K  K0  1  0.00000000  0.00000000  0.00139600  1
  Ag  Ag1  1  0.50000000  0.50000000  0.51468700  1
  Br  Br2  1  0.00000000  0.50000000  0.51567700  1
  Br  Br3  1  0.50000000  0.50000000  0.01471100  1
  Br  Br4  1  0.50000000  0.00000000  0.51567700  1
