# generated using pymatgen
data_ZnWO3
_symmetry_space_group_name_H-M   'P 1'
_cell_length_a   3.99730234
_cell_length_b   3.99730234
_cell_length_c   4.07208600
_cell_angle_alpha   90.00000000
_cell_angle_beta   90.00000000
_cell_angle_gamma   91.01825563
_symmetry_Int_Tables_number   1
_chemical_formula_structural   ZnWO3
_chemical_formula_sum   'Zn1 W1 O3'
_cell_volume   65.05524988
_cell_formula_units_Z   1
loop_
 _symmetry_equiv_pos_site_id
 _symmetry_equiv_pos_as_xyz
  1  'x, y, z'
loop_
 _atom_site_type_symbol
 _atom_site_label
 _atom_site_symmetry_multiplicity
 _atom_site_fract_x
 _atom_site_fract_y
 _atom_site_fract_z
 _atom_site_occupancy
  Zn  Zn0  1  0.45453000  0.45453000  0.50000000  1
  W  W1  1  0.03985600  0.03985600  0.00000000  1
  O  O2  1  0.07725900  0.07725900  0.50000000  1
  O  O3  1  0.06670100  0.55842700  0.00000000  1
  O  O4  1  0.55842700  0.06670100  0.00000000  1
