# generated using pymatgen
data_AlFeO3
_symmetry_space_group_name_H-M   'P 1'
_cell_length_a   4.88617100
_cell_length_b   4.93583800
_cell_length_c   7.43877800
_cell_angle_alpha   90.00000000
_cell_angle_beta   90.00000000
_cell_angle_gamma   90.00000000
_symmetry_Int_Tables_number   1
_chemical_formula_structural   AlFeO3
_chemical_formula_sum   'Al4 Fe4 O12'
_cell_volume   179.40360141
_cell_formula_units_Z   4
loop_
 _symmetry_equiv_pos_site_id
 _symmetry_equiv_pos_as_xyz
  1  'x, y, z'
loop_
 _atom_site_type_symbol
 _atom_site_label
 _atom_site_symmetry_multiplicity
 _atom_site_fract_x
 _atom_site_fract_y
 _atom_site_fract_z
 _atom_site_occupancy
  Al  Al0  1  0.99427200  0.46466800  0.25000000  1
  Al  Al1  1  0.49427200  0.03533200  0.75000000  1
  Al  Al2  1  0.50572800  0.96466800  0.25000000  1
  Al  Al3  1  0.00572800  0.53533200  0.75000000  1
  Fe  Fe4  1  0.00000000  0.00000000  0.00000000  1
  Fe  Fe5  1  0.50000000  0.50000000  0.00000000  1
  Fe  Fe6  1  0.50000000  0.50000000  0.50000000  1
  Fe  Fe7  1  0.00000000  0.00000000  0.50000000  1
  O  O8  1  0.66421700  0.82862500  0.92237500  1
  O  O9  1  0.16421700  0.67137500  0.07762500  1
  O  O10  1  0.83578300  0.32862500  0.57762500  1
  O  O11  1  0.33578300  0.17137500  0.42237500  1
  O  O12  1  0.33578300  0.17137500  0.07762500  1
  O  O13  1  0.83578300  0.32862500  0.92237500  1
  O  O14  1  0.16421700  0.67137500  0.42237500  1
  O  O15  1  0.66421700  0.82862500  0.57762500  1
  O  O16  1  0.14159900  0.89255700  0.75000000  1
  O  O17  1  0.64159900  0.60744300  0.25000000  1
  O  O18  1  0.35840100  0.39255700  0.75000000  1
  O  O19  1  0.85840100  0.10744300  0.25000000  1
