# generated using pymatgen
data_MoPbO3
_symmetry_space_group_name_H-M   'P 1'
_cell_length_a   5.60798710
_cell_length_b   5.69667482
_cell_length_c   7.98398380
_cell_angle_alpha   90.00000000
_cell_angle_beta   90.00000000
_cell_angle_gamma   90.00000000
_symmetry_Int_Tables_number   1
_chemical_formula_structural   MoPbO3
_chemical_formula_sum   'Mo4 Pb4 O12'
_cell_volume   255.06336353
_cell_formula_units_Z   4
loop_
 _symmetry_equiv_pos_site_id
 _symmetry_equiv_pos_as_xyz
  1  'x, y, z'
loop_
 _atom_site_type_symbol
 _atom_site_label
 _atom_site_symmetry_multiplicity
 _atom_site_fract_x
 _atom_site_fract_y
 _atom_site_fract_z
 _atom_site_occupancy
  Mo  Mo0  1  0.49999937  0.00000000  0.00000000  1
  Mo  Mo1  1  0.00000000  0.50000045  0.00000000  1
  Mo  Mo2  1  0.49999937  0.00000000  0.49999976  1
  Mo  Mo3  1  0.00000000  0.50000045  0.49999976  1
  O  O4  1  0.73279412  0.26625006  0.01683370  1
  O  O5  1  0.76720576  0.76625051  0.01683370  1
  O  O6  1  0.03362882  0.49707770  0.25000051  1
  O  O7  1  0.46637054  0.99707724  0.25000051  1
  O  O8  1  0.73279412  0.26625006  0.48316731  1
  O  O9  1  0.76720576  0.76625051  0.48316731  1
  O  O10  1  0.23279476  0.23374864  0.51683346  1
  O  O11  1  0.26720639  0.73374910  0.51683346  1
  O  O12  1  0.53362819  0.00292276  0.75000027  1
  O  O13  1  0.96637169  0.50292146  0.75000027  1
  O  O14  1  0.23279476  0.23374864  0.98316708  1
  O  O15  1  0.26720639  0.73374910  0.98316708  1
  Pb  Pb16  1  0.99809201  0.01445756  0.25000051  1
  Pb  Pb17  1  0.50190736  0.51445801  0.25000051  1
  Pb  Pb18  1  0.49809316  0.48554290  0.75000027  1
  Pb  Pb19  1  0.00190799  0.98554160  0.75000027  1
