# generated using pymatgen
data_CeMnO3
_symmetry_space_group_name_H-M   'P 1'
_cell_length_a   5.50283283
_cell_length_b   5.68332252
_cell_length_c   7.81610487
_cell_angle_alpha   90.00000000
_cell_angle_beta   90.00000000
_cell_angle_gamma   90.00000000
_symmetry_Int_Tables_number   1
_chemical_formula_structural   CeMnO3
_chemical_formula_sum   'Ce4 Mn4 O12'
_cell_volume   244.44378480
_cell_formula_units_Z   4
loop_
 _symmetry_equiv_pos_site_id
 _symmetry_equiv_pos_as_xyz
  1  'x, y, z'
loop_
 _atom_site_type_symbol
 _atom_site_label
 _atom_site_symmetry_multiplicity
 _atom_site_fract_x
 _atom_site_fract_y
 _atom_site_fract_z
 _atom_site_occupancy
  Ce  Ce0  1  0.98909783  0.04967517  0.25000048  1
  Ce  Ce1  1  0.51090231  0.54967495  0.25000048  1
  Ce  Ce2  1  0.48909718  0.45032461  0.75000017  1
  Ce  Ce3  1  0.01090166  0.95032439  0.75000017  1
  Mn  Mn4  1  0.50000065  0.00000000  0.00000000  1
  Mn  Mn5  1  0.00000000  0.49999978  0.00000000  1
  Mn  Mn6  1  0.50000065  0.00000000  0.49999969  1
  Mn  Mn7  1  0.00000000  0.49999978  0.49999969  1
  O  O8  1  0.71788116  0.29626332  0.04089505  1
  O  O9  1  0.78211898  0.79626310  0.04089505  1
  O  O10  1  0.07714935  0.48501031  0.25000048  1
  O  O11  1  0.42285130  0.98501009  0.25000048  1
  O  O12  1  0.71788116  0.29626332  0.45910464  1
  O  O13  1  0.78211898  0.79626310  0.45910464  1
  O  O14  1  0.21788232  0.20373822  0.54089602  1
  O  O15  1  0.28211833  0.70373800  0.54089602  1
  O  O16  1  0.57714819  0.01498947  0.75000017  1
  O  O17  1  0.92285195  0.51498925  0.75000017  1
  O  O18  1  0.21788232  0.20373822  0.95910433  1
  O  O19  1  0.28211833  0.70373800  0.95910433  1
