# generated using pymatgen
data_PrCuO3
_symmetry_space_group_name_H-M   'P 1'
_cell_length_a   5.43413324
_cell_length_b   5.41412730
_cell_length_c   7.66103172
_cell_angle_alpha   90.00000000
_cell_angle_beta   90.00000000
_cell_angle_gamma   90.00000000
_symmetry_Int_Tables_number   1
_chemical_formula_structural   PrCuO3
_chemical_formula_sum   'Pr4 Cu4 O12'
_cell_volume   225.39589658
_cell_formula_units_Z   4
loop_
 _symmetry_equiv_pos_site_id
 _symmetry_equiv_pos_as_xyz
  1  'x, y, z'
loop_
 _atom_site_type_symbol
 _atom_site_label
 _atom_site_symmetry_multiplicity
 _atom_site_fract_x
 _atom_site_fract_y
 _atom_site_fract_z
 _atom_site_occupancy
  Cu  Cu0  1  0.49999878  0.00000000  0.00000000  1
  Cu  Cu1  1  0.00000000  0.49999933  0.00000000  1
  Cu  Cu2  1  0.49999878  0.00000000  0.50000054  1
  Cu  Cu3  1  0.00000000  0.49999933  0.50000054  1
  O  O4  1  0.72335179  0.27953905  0.03537644  1
  O  O5  1  0.77665008  0.77953838  0.03537644  1
  O  O6  1  0.06520451  0.49703486  0.24999897  1
  O  O7  1  0.43479795  0.99703419  0.24999897  1
  O  O8  1  0.72335179  0.27953905  0.46462410  1
  O  O9  1  0.77665008  0.77953838  0.46462410  1
  O  O10  1  0.22334933  0.22046028  0.53537698  1
  O  O11  1  0.27664946  0.72046145  0.53537698  1
  O  O12  1  0.56520329  0.00296631  0.74999951  1
  O  O13  1  0.93479673  0.50296564  0.74999951  1
  O  O14  1  0.22334933  0.22046028  0.96462203  1
  O  O15  1  0.27664946  0.72046145  0.96462203  1
  Pr  Pr16  1  0.99366169  0.03428992  0.24999897  1
  Pr  Pr17  1  0.50633834  0.53429109  0.24999897  1
  Pr  Pr18  1  0.49366291  0.46570940  0.74999951  1
  Pr  Pr19  1  0.00633956  0.96570873  0.74999951  1
