# generated using pymatgen
data_KNpO3
_symmetry_space_group_name_H-M   'P 1'
_cell_length_a   6.07205726
_cell_length_b   6.10107733
_cell_length_c   8.62738687
_cell_angle_alpha   90.00000000
_cell_angle_beta   90.00000000
_cell_angle_gamma   90.00000000
_symmetry_Int_Tables_number   1
_chemical_formula_structural   KNpO3
_chemical_formula_sum   'K4 Np4 O12'
_cell_volume   319.61095825
_cell_formula_units_Z   4
loop_
 _symmetry_equiv_pos_site_id
 _symmetry_equiv_pos_as_xyz
  1  'x, y, z'
loop_
 _atom_site_type_symbol
 _atom_site_label
 _atom_site_symmetry_multiplicity
 _atom_site_fract_x
 _atom_site_fract_y
 _atom_site_fract_z
 _atom_site_occupancy
  K  K0  1  0.99908313  0.00610056  0.25000038  1
  K  K1  1  0.50091754  0.50610078  0.25000038  1
  K  K2  1  0.49908291  0.49389966  0.74999998  1
  K  K3  1  0.00091732  0.99389824  0.74999998  1
  Np  Np4  1  0.50000023  0.00000000  0.00000000  1
  Np  Np5  1  0.00000000  0.50000022  0.00000000  1
  Np  Np6  1  0.50000023  0.00000000  0.49999960  1
  Np  Np7  1  0.00000000  0.50000022  0.49999960  1
  O  O8  1  0.74310399  0.27543168  0.01396483  1
  O  O9  1  0.75689668  0.77543026  0.01396483  1
  O  O10  1  0.02700897  0.49850212  0.25000038  1
  O  O11  1  0.47298961  0.99850234  0.25000038  1
  O  O12  1  0.74310399  0.27543168  0.48603593  1
  O  O13  1  0.75689668  0.77543026  0.48603593  1
  O  O14  1  0.24310377  0.22456854  0.51396443  1
  O  O15  1  0.25689646  0.72456875  0.51396443  1
  O  O16  1  0.52700919  0.00149810  0.74999998  1
  O  O17  1  0.97299148  0.50149832  0.74999998  1
  O  O18  1  0.24310377  0.22456854  0.98603553  1
  O  O19  1  0.25689646  0.72456875  0.98603553  1
