# generated using pymatgen
data_CeFeO3
_symmetry_space_group_name_H-M   'P 1'
_cell_length_a   5.46703400
_cell_length_b   5.78395000
_cell_length_c   7.77725000
_cell_angle_alpha   90.00000000
_cell_angle_beta   90.00000000
_cell_angle_gamma   90.00000000
_symmetry_Int_Tables_number   1
_chemical_formula_structural   CeFeO3
_chemical_formula_sum   'Ce4 Fe4 O12'
_cell_volume   245.92482126
_cell_formula_units_Z   4
loop_
 _symmetry_equiv_pos_site_id
 _symmetry_equiv_pos_as_xyz
  1  'x, y, z'
loop_
 _atom_site_type_symbol
 _atom_site_label
 _atom_site_symmetry_multiplicity
 _atom_site_fract_x
 _atom_site_fract_y
 _atom_site_fract_z
 _atom_site_occupancy
  Ce  Ce0  1  0.02468100  0.41629300  0.75000000  1
  Ce  Ce1  1  0.47531900  0.91629300  0.75000000  1
  Ce  Ce2  1  0.52468100  0.08370700  0.25000000  1
  Ce  Ce3  1  0.97531900  0.58370700  0.25000000  1
  Fe  Fe4  1  0.00000000  0.00000000  0.00000000  1
  Fe  Fe5  1  0.00000000  0.00000000  0.50000000  1
  Fe  Fe6  1  0.50000000  0.50000000  0.00000000  1
  Fe  Fe7  1  0.50000000  0.50000000  0.50000000  1
  O  O8  1  0.13588700  0.95304200  0.25000000  1
  O  O9  1  0.18197500  0.68109600  0.56812000  1
  O  O10  1  0.18197500  0.68109600  0.93188000  1
  O  O11  1  0.31802500  0.18109600  0.56812000  1
  O  O12  1  0.31802500  0.18109600  0.93188000  1
  O  O13  1  0.36411300  0.45304200  0.25000000  1
  O  O14  1  0.63588700  0.54695800  0.75000000  1
  O  O15  1  0.68197500  0.81890400  0.06812000  1
  O  O16  1  0.68197500  0.81890400  0.43188000  1
  O  O17  1  0.81802500  0.31890400  0.06812000  1
  O  O18  1  0.81802500  0.31890400  0.43188000  1
  O  O19  1  0.86411300  0.04695800  0.75000000  1
