# generated using pymatgen
data_NaNbO3
_symmetry_space_group_name_H-M   'P 1'
_cell_length_a   5.61527100
_cell_length_b   5.64296100
_cell_length_c   7.87569500
_cell_angle_alpha   90.00000000
_cell_angle_beta   90.00000000
_cell_angle_gamma   90.00000000
_symmetry_Int_Tables_number   1
_chemical_formula_structural   NaNbO3
_chemical_formula_sum   'Na4 Nb4 O12'
_cell_volume   249.55521995
_cell_formula_units_Z   4
loop_
 _symmetry_equiv_pos_site_id
 _symmetry_equiv_pos_as_xyz
  1  'x, y, z'
loop_
 _atom_site_type_symbol
 _atom_site_label
 _atom_site_symmetry_multiplicity
 _atom_site_fract_x
 _atom_site_fract_y
 _atom_site_fract_z
 _atom_site_occupancy
  Na  Na0  1  0.49679800  0.25097300  0.00000000  1
  Na  Na1  1  0.99679800  0.74902700  0.50000000  1
  Na  Na2  1  0.49198700  0.22603300  0.50000000  1
  Na  Na3  1  0.99198700  0.77396700  0.00000000  1
  Nb  Nb4  1  0.48357600  0.74452400  0.25347500  1
  Nb  Nb5  1  0.48357600  0.74452400  0.74652500  1
  Nb  Nb6  1  0.98357600  0.25547600  0.24652500  1
  Nb  Nb7  1  0.98357600  0.25547600  0.75347500  1
  O  O8  1  0.07571900  0.23847000  0.00000000  1
  O  O9  1  0.57571900  0.76153000  0.50000000  1
  O  O10  1  0.94912600  0.25708400  0.50000000  1
  O  O11  1  0.44912600  0.74291600  0.00000000  1
  O  O12  1  0.79561600  0.53516700  0.21793800  1
  O  O13  1  0.79561600  0.53516700  0.78206200  1
  O  O14  1  0.29561600  0.46483300  0.28206200  1
  O  O15  1  0.29561600  0.46483300  0.71793800  1
  O  O16  1  0.23319200  0.96992100  0.28300100  1
  O  O17  1  0.23319200  0.96992100  0.71699900  1
  O  O18  1  0.73319200  0.03007900  0.21699900  1
  O  O19  1  0.73319200  0.03007900  0.78300100  1
