# generated using pymatgen
data_LiUO3
_symmetry_space_group_name_H-M   'P 1'
_cell_length_a   5.47359943
_cell_length_b   5.67274468
_cell_length_c   8.06348751
_cell_angle_alpha   90.00000000
_cell_angle_beta   90.00000000
_cell_angle_gamma   90.00000000
_symmetry_Int_Tables_number   1
_chemical_formula_structural   LiUO3
_chemical_formula_sum   'Li4 U4 O12'
_cell_volume   250.37396474
_cell_formula_units_Z   4
loop_
 _symmetry_equiv_pos_site_id
 _symmetry_equiv_pos_as_xyz
  1  'x, y, z'
loop_
 _atom_site_type_symbol
 _atom_site_label
 _atom_site_symmetry_multiplicity
 _atom_site_fract_x
 _atom_site_fract_y
 _atom_site_fract_z
 _atom_site_occupancy
  Li  Li0  1  0.01331117  0.01274515  0.24999977  1
  Li  Li1  1  0.48668888  0.51274474  0.24999977  1
  Li  Li2  1  0.51331122  0.48725443  0.75000054  1
  Li  Li3  1  0.98668894  0.98725578  0.75000054  1
  O  O4  1  0.66043013  0.32990027  0.07303664  1
  O  O5  1  0.83957002  0.82990162  0.07303664  1
  O  O6  1  0.13457324  0.41989727  0.24999977  1
  O  O7  1  0.36542681  0.91989686  0.24999977  1
  O  O8  1  0.66043013  0.32990027  0.42696290  1
  O  O9  1  0.83957002  0.82990162  0.42696290  1
  O  O10  1  0.16043008  0.17009932  0.57303617  1
  O  O11  1  0.33956997  0.67009890  0.57303617  1
  O  O12  1  0.63457329  0.08010232  0.75000054  1
  O  O13  1  0.86542687  0.58010367  0.75000054  1
  O  O14  1  0.16043008  0.17009932  0.92696243  1
  O  O15  1  0.33956997  0.67009890  0.92696243  1
  U  U16  1  0.50000005  0.00000000  0.00000000  1
  U  U17  1  0.00000000  0.49999959  0.00000000  1
  U  U18  1  0.50000005  0.00000000  0.50000077  1
  U  U19  1  0.00000000  0.49999959  0.50000077  1
