# generated using pymatgen
data_RbCaCl3
_symmetry_space_group_name_H-M   'P 1'
_cell_length_a   5.42594838
_cell_length_b   5.42594838
_cell_length_c   5.42425575
_cell_angle_alpha   89.93153956
_cell_angle_beta   89.93153956
_cell_angle_gamma   90.05201343
_symmetry_Int_Tables_number   1
_chemical_formula_structural   RbCaCl3
_chemical_formula_sum   'Rb1 Ca1 Cl3'
_cell_volume   159.69476308
_cell_formula_units_Z   1
loop_
 _symmetry_equiv_pos_site_id
 _symmetry_equiv_pos_as_xyz
  1  'x, y, z'
loop_
 _atom_site_type_symbol
 _atom_site_label
 _atom_site_symmetry_multiplicity
 _atom_site_fract_x
 _atom_site_fract_y
 _atom_site_fract_z
 _atom_site_occupancy
  Rb  Rb0  1  0.00301300  0.00301300  0.99657200  1
  Ca  Ca1  1  0.50330200  0.50330200  0.48529900  1
  Cl  Cl2  1  0.50536300  0.00169300  0.48449900  1
  Cl  Cl3  1  0.49453600  0.49453500  0.98550300  1
  Cl  Cl4  1  0.00169300  0.50536300  0.48449900  1
