# generated using pymatgen
data_PaHgO3
_symmetry_space_group_name_H-M   'P 1'
_cell_length_a   6.02074529
_cell_length_b   6.17330693
_cell_length_c   8.62210699
_cell_angle_alpha   90.00000000
_cell_angle_beta   90.00000000
_cell_angle_gamma   90.00000000
_symmetry_Int_Tables_number   1
_chemical_formula_structural   PaHgO3
_chemical_formula_sum   'Pa4 Hg4 O12'
_cell_volume   320.46568406
_cell_formula_units_Z   4
loop_
 _symmetry_equiv_pos_site_id
 _symmetry_equiv_pos_as_xyz
  1  'x, y, z'
loop_
 _atom_site_type_symbol
 _atom_site_label
 _atom_site_symmetry_multiplicity
 _atom_site_fract_x
 _atom_site_fract_y
 _atom_site_fract_z
 _atom_site_occupancy
  Hg  Hg0  1  0.98970305  0.02736297  0.24999922  1
  Hg  Hg1  1  0.51029729  0.52736241  0.24999922  1
  Hg  Hg2  1  0.48970183  0.47263809  0.74999997  1
  Hg  Hg3  1  0.01029773  0.97263753  0.74999997  1
  O  O4  1  0.70593752  0.29134466  0.03331320  1
  O  O5  1  0.79406116  0.79134410  0.03331320  1
  O  O6  1  0.42605024  0.00119547  0.24999922  1
  O  O7  1  0.07394932  0.50119491  0.24999922  1
  O  O8  1  0.70593752  0.29134466  0.46668755  1
  O  O9  1  0.79406116  0.79134410  0.46668755  1
  O  O10  1  0.20593796  0.20865640  0.53331280  1
  O  O11  1  0.29406160  0.70865584  0.53331280  1
  O  O12  1  0.92604981  0.49880559  0.74999997  1
  O  O13  1  0.57394888  0.99880503  0.74999997  1
  O  O14  1  0.20593796  0.20865640  0.96668715  1
  O  O15  1  0.29406160  0.70865584  0.96668715  1
  Pa  Pa16  1  0.49999956  0.00000000  0.00000000  1
  Pa  Pa17  1  0.00000000  0.49999944  0.00000000  1
  Pa  Pa18  1  0.49999956  0.00000000  0.49999959  1
  Pa  Pa19  1  0.00000000  0.49999944  0.49999959  1
