# generated using pymatgen
data_YbCeO3
_symmetry_space_group_name_H-M   'P 1'
_cell_length_a   5.74674900
_cell_length_b   5.93770300
_cell_length_c   8.45043800
_cell_angle_alpha   90.00000000
_cell_angle_beta   90.00000000
_cell_angle_gamma   90.00000000
_symmetry_Int_Tables_number   1
_chemical_formula_structural   YbCeO3
_chemical_formula_sum   'Yb4 Ce4 O12'
_cell_volume   288.34997582
_cell_formula_units_Z   4
loop_
 _symmetry_equiv_pos_site_id
 _symmetry_equiv_pos_as_xyz
  1  'x, y, z'
loop_
 _atom_site_type_symbol
 _atom_site_label
 _atom_site_symmetry_multiplicity
 _atom_site_fract_x
 _atom_site_fract_y
 _atom_site_fract_z
 _atom_site_occupancy
  Yb  Yb0  1  0.00000000  0.00000000  0.00000000  1
  Yb  Yb1  1  0.50000000  0.50000000  0.00000000  1
  Yb  Yb2  1  0.00000000  0.00000000  0.50000000  1
  Yb  Yb3  1  0.50000000  0.50000000  0.50000000  1
  Ce  Ce4  1  0.01578100  0.45247800  0.25000000  1
  Ce  Ce5  1  0.98421900  0.54752200  0.75000000  1
  Ce  Ce6  1  0.51578100  0.04752200  0.75000000  1
  Ce  Ce7  1  0.48421900  0.95247800  0.25000000  1
  O  O8  1  0.32865100  0.17368800  0.08241900  1
  O  O9  1  0.67134900  0.82631200  0.91758100  1
  O  O10  1  0.82865100  0.32631200  0.91758100  1
  O  O11  1  0.67134900  0.82631200  0.58241900  1
  O  O12  1  0.17134900  0.67368800  0.08241900  1
  O  O13  1  0.32865100  0.17368800  0.41758100  1
  O  O14  1  0.17134900  0.67368800  0.41758100  1
  O  O15  1  0.82865100  0.32631200  0.58241900  1
  O  O16  1  0.65977000  0.59616300  0.25000000  1
  O  O17  1  0.34023000  0.40383700  0.75000000  1
  O  O18  1  0.15977000  0.90383700  0.75000000  1
  O  O19  1  0.84023000  0.09616300  0.25000000  1
