# generated using pymatgen
data_YbTcO3
_symmetry_space_group_name_H-M   'P 1'
_cell_length_a   5.26115400
_cell_length_b   5.59170289
_cell_length_c   7.61538837
_cell_angle_alpha   90.00000000
_cell_angle_beta   90.00000000
_cell_angle_gamma   90.00000000
_symmetry_Int_Tables_number   1
_chemical_formula_structural   YbTcO3
_chemical_formula_sum   'Yb4 Tc4 O12'
_cell_volume   224.03566359
_cell_formula_units_Z   4
loop_
 _symmetry_equiv_pos_site_id
 _symmetry_equiv_pos_as_xyz
  1  'x, y, z'
loop_
 _atom_site_type_symbol
 _atom_site_label
 _atom_site_symmetry_multiplicity
 _atom_site_fract_x
 _atom_site_fract_y
 _atom_site_fract_z
 _atom_site_occupancy
  O  O0  1  0.69264082  0.30000163  0.05266704  1
  O  O1  1  0.80736089  0.80000138  0.05266704  1
  O  O2  1  0.10340317  0.46642142  0.25000038  1
  O  O3  1  0.39659740  0.96642116  0.25000038  1
  O  O4  1  0.69264082  0.30000163  0.44733372  1
  O  O5  1  0.80736089  0.80000138  0.44733372  1
  O  O6  1  0.19264025  0.19999990  0.55266650  1
  O  O7  1  0.30735842  0.69999964  0.55266650  1
  O  O8  1  0.60340374  0.03357832  0.75000115  1
  O  O9  1  0.89659607  0.53357806  0.75000115  1
  O  O10  1  0.19264025  0.19999990  0.94733317  1
  O  O11  1  0.30735842  0.69999964  0.94733317  1
  Tc  Tc12  1  0.49999867  0.00000000  0.00000000  1
  Tc  Tc13  1  0.00000000  0.49999974  0.00000000  1
  Tc  Tc14  1  0.49999867  0.00000000  0.49999945  1
  Tc  Tc15  1  0.00000000  0.49999974  0.49999945  1
  Yb  Yb16  1  0.97961398  0.06719778  0.25000038  1
  Yb  Yb17  1  0.52038583  0.56719752  0.25000038  1
  Yb  Yb18  1  0.47961341  0.43280197  0.75000115  1
  Yb  Yb19  1  0.02038716  0.93280350  0.75000115  1
