# generated using pymatgen
data_AlCrO3
_symmetry_space_group_name_H-M   'P 1'
_cell_length_a   5.01951300
_cell_length_b   5.05239300
_cell_length_c   7.53218200
_cell_angle_alpha   90.00000000
_cell_angle_beta   90.00000000
_cell_angle_gamma   90.00000000
_symmetry_Int_Tables_number   1
_chemical_formula_structural   AlCrO3
_chemical_formula_sum   'Al4 Cr4 O12'
_cell_volume   191.02029588
_cell_formula_units_Z   4
loop_
 _symmetry_equiv_pos_site_id
 _symmetry_equiv_pos_as_xyz
  1  'x, y, z'
loop_
 _atom_site_type_symbol
 _atom_site_label
 _atom_site_symmetry_multiplicity
 _atom_site_fract_x
 _atom_site_fract_y
 _atom_site_fract_z
 _atom_site_occupancy
  Al  Al0  1  0.98819200  0.97756900  0.75000000  1
  Al  Al1  1  0.48819200  0.52243100  0.25000000  1
  Al  Al2  1  0.51180800  0.47756900  0.75000000  1
  Al  Al3  1  0.01180800  0.02243100  0.25000000  1
  Cr  Cr4  1  0.00000000  0.50000000  0.50000000  1
  Cr  Cr5  1  0.50000000  0.00000000  0.50000000  1
  Cr  Cr6  1  0.50000000  0.00000000  0.00000000  1
  Cr  Cr7  1  0.00000000  0.50000000  0.00000000  1
  O  O8  1  0.66001400  0.33701600  0.42139900  1
  O  O9  1  0.16001400  0.16298400  0.57860100  1
  O  O10  1  0.83998600  0.83701600  0.07860100  1
  O  O11  1  0.33998600  0.66298400  0.92139900  1
  O  O12  1  0.33998600  0.66298400  0.57860100  1
  O  O13  1  0.83998600  0.83701600  0.42139900  1
  O  O14  1  0.16001400  0.16298400  0.92139900  1
  O  O15  1  0.66001400  0.33701600  0.07860100  1
  O  O16  1  0.14148900  0.37842000  0.25000000  1
  O  O17  1  0.64148900  0.12158000  0.75000000  1
  O  O18  1  0.35851100  0.87842000  0.25000000  1
  O  O19  1  0.85851100  0.62158000  0.75000000  1
