# generated using pymatgen
data_TaFeO3
_symmetry_space_group_name_H-M   'P 1'
_cell_length_a   5.17763173
_cell_length_b   5.76705121
_cell_length_c   7.43158776
_cell_angle_alpha   90.00000000
_cell_angle_beta   90.00000000
_cell_angle_gamma   90.00000000
_symmetry_Int_Tables_number   1
_chemical_formula_structural   TaFeO3
_chemical_formula_sum   'Ta4 Fe4 O12'
_cell_volume   221.90473847
_cell_formula_units_Z   4
loop_
 _symmetry_equiv_pos_site_id
 _symmetry_equiv_pos_as_xyz
  1  'x, y, z'
loop_
 _atom_site_type_symbol
 _atom_site_label
 _atom_site_symmetry_multiplicity
 _atom_site_fract_x
 _atom_site_fract_y
 _atom_site_fract_z
 _atom_site_occupancy
  Fe  Fe0  1  0.94919265  0.02676238  0.25000041  1
  Fe  Fe1  1  0.55080588  0.52675967  0.25000041  1
  Fe  Fe2  1  0.44919379  0.47323839  0.74999989  1
  Fe  Fe3  1  0.05080508  0.97323915  0.74999989  1
  O  O4  1  0.72938173  0.26639958  0.07126606  1
  O  O5  1  0.77062066  0.76639860  0.07126606  1
  O  O6  1  0.16432996  0.48740160  0.25000041  1
  O  O7  1  0.33566891  0.98740236  0.25000041  1
  O  O8  1  0.72938173  0.26639958  0.42873341  1
  O  O9  1  0.77062066  0.76639860  0.42873341  1
  O  O10  1  0.22937900  0.23359945  0.57126554  1
  O  O11  1  0.27061986  0.73360021  0.57126554  1
  O  O12  1  0.66432882  0.01260089  0.74999989  1
  O  O13  1  0.83566971  0.51259992  0.74999989  1
  O  O14  1  0.22937900  0.23359945  0.92873424  1
  O  O15  1  0.27061986  0.73360021  0.92873424  1
  Ta  Ta16  1  0.49999887  0.00000000  0.00000000  1
  Ta  Ta17  1  0.00000000  0.50000076  0.00000000  1
  Ta  Ta18  1  0.49999887  0.00000000  0.49999948  1
  Ta  Ta19  1  0.00000000  0.50000076  0.49999948  1
