# generated using pymatgen
data_LaSmO3
_symmetry_space_group_name_H-M   'P 1'
_cell_length_a   6.03017700
_cell_length_b   6.21450200
_cell_length_c   8.73191200
_cell_angle_alpha   90.00000000
_cell_angle_beta   90.00000000
_cell_angle_gamma   90.00000000
_symmetry_Int_Tables_number   1
_chemical_formula_structural   LaSmO3
_chemical_formula_sum   'La4 Sm4 O12'
_cell_volume   327.22444688
_cell_formula_units_Z   4
loop_
 _symmetry_equiv_pos_site_id
 _symmetry_equiv_pos_as_xyz
  1  'x, y, z'
loop_
 _atom_site_type_symbol
 _atom_site_label
 _atom_site_symmetry_multiplicity
 _atom_site_fract_x
 _atom_site_fract_y
 _atom_site_fract_z
 _atom_site_occupancy
  La  La0  1  0.49184700  0.04166400  0.48346500  1
  La  La1  1  0.99184700  0.45833600  0.98346500  1
  La  La2  1  0.00815300  0.54166400  0.48346500  1
  La  La3  1  0.50815300  0.95833600  0.98346500  1
  Sm  Sm4  1  0.99996500  0.00592900  0.74002400  1
  Sm  Sm5  1  0.49996500  0.49407100  0.24002400  1
  Sm  Sm6  1  0.50003500  0.50592900  0.74002400  1
  Sm  Sm7  1  0.00003500  0.99407100  0.24002400  1
  O  O8  1  0.13688000  0.07563600  0.99326900  1
  O  O9  1  0.66725300  0.16178300  0.18313000  1
  O  O10  1  0.69192800  0.20218800  0.82391300  1
  O  O11  1  0.19192800  0.29781200  0.32391300  1
  O  O12  1  0.16725300  0.33821700  0.68313000  1
  O  O13  1  0.63688000  0.42436400  0.49326900  1
  O  O14  1  0.36312000  0.57563600  0.99326900  1
  O  O15  1  0.83274700  0.66178300  0.18313000  1
  O  O16  1  0.80807200  0.70218800  0.82391300  1
  O  O17  1  0.30807200  0.79781200  0.32391300  1
  O  O18  1  0.33274700  0.83821700  0.68313000  1
  O  O19  1  0.86312000  0.92436400  0.49326900  1
