# generated using pymatgen
data_FePbO3
_symmetry_space_group_name_H-M   'P 1'
_cell_length_a   5.41966424
_cell_length_b   5.59930434
_cell_length_c   7.76832421
_cell_angle_alpha   90.00000000
_cell_angle_beta   90.00000000
_cell_angle_gamma   90.00000000
_symmetry_Int_Tables_number   1
_chemical_formula_structural   FePbO3
_chemical_formula_sum   'Fe4 Pb4 O12'
_cell_volume   235.74028134
_cell_formula_units_Z   4
loop_
 _symmetry_equiv_pos_site_id
 _symmetry_equiv_pos_as_xyz
  1  'x, y, z'
loop_
 _atom_site_type_symbol
 _atom_site_label
 _atom_site_symmetry_multiplicity
 _atom_site_fract_x
 _atom_site_fract_y
 _atom_site_fract_z
 _atom_site_occupancy
  Fe  Fe0  1  0.49999961  0.00000000  0.00000000  1
  Fe  Fe1  1  0.00000000  0.49999961  0.00000000  1
  Fe  Fe2  1  0.49999961  0.00000000  0.49999973  1
  Fe  Fe3  1  0.00000000  0.49999961  0.49999973  1
  O  O4  1  0.69653761  0.29985689  0.05052827  1
  O  O5  1  0.80346306  0.79985650  0.05052827  1
  O  O6  1  0.09900060  0.46650438  0.24999986  1
  O  O7  1  0.40100086  0.96650399  0.24999986  1
  O  O8  1  0.69653761  0.29985689  0.44947146  1
  O  O9  1  0.80346306  0.79985650  0.44947146  1
  O  O10  1  0.19653801  0.20014272  0.55052800  1
  O  O11  1  0.30346345  0.70014233  0.55052800  1
  O  O12  1  0.59900021  0.03349523  0.74999959  1
  O  O13  1  0.90100047  0.53349663  0.74999959  1
  O  O14  1  0.19653801  0.20014272  0.94947247  1
  O  O15  1  0.30346345  0.70014233  0.94947247  1
  Pb  Pb16  1  0.98844315  0.04913825  0.24999986  1
  Pb  Pb17  1  0.51155568  0.54913965  0.24999986  1
  Pb  Pb18  1  0.48844354  0.45086137  0.74999959  1
  Pb  Pb19  1  0.01155607  0.95086098  0.74999959  1
