# generated using pymatgen
data_KPbO3
_symmetry_space_group_name_H-M   'P 1'
_cell_length_a   6.13176742
_cell_length_b   6.13526470
_cell_length_c   8.70500889
_cell_angle_alpha   90.00000000
_cell_angle_beta   90.00000000
_cell_angle_gamma   90.00000000
_symmetry_Int_Tables_number   1
_chemical_formula_structural   KPbO3
_chemical_formula_sum   'K4 Pb4 O12'
_cell_volume   327.48257546
_cell_formula_units_Z   4
loop_
 _symmetry_equiv_pos_site_id
 _symmetry_equiv_pos_as_xyz
  1  'x, y, z'
loop_
 _atom_site_type_symbol
 _atom_site_label
 _atom_site_symmetry_multiplicity
 _atom_site_fract_x
 _atom_site_fract_y
 _atom_site_fract_z
 _atom_site_occupancy
  K  K0  1  0.99669306  0.01534897  0.24999974  1
  K  K1  1  0.50330676  0.51534859  0.24999974  1
  K  K2  1  0.49669366  0.48465228  0.75000038  1
  K  K3  1  0.00330574  0.98465189  0.75000038  1
  O  O4  1  0.72100908  0.27895781  0.02686499  1
  O  O5  1  0.77899073  0.77895743  0.02686499  1
  O  O6  1  0.04964637  0.48955671  0.24999974  1
  O  O7  1  0.45035466  0.98955633  0.24999974  1
  O  O8  1  0.72100908  0.27895781  0.47313565  1
  O  O9  1  0.77899073  0.77895743  0.47313565  1
  O  O10  1  0.22100806  0.22104181  0.52686448  1
  O  O11  1  0.27898971  0.72104142  0.52686448  1
  O  O12  1  0.54964577  0.01044128  0.75000038  1
  O  O13  1  0.95035242  0.51044252  0.75000038  1
  O  O14  1  0.22100806  0.22104181  0.97313628  1
  O  O15  1  0.27898971  0.72104142  0.97313628  1
  Pb  Pb16  1  0.50000103  0.00000000  0.00000000  1
  Pb  Pb17  1  0.00000000  0.49999962  0.00000000  1
  Pb  Pb18  1  0.50000103  0.00000000  0.49999949  1
  Pb  Pb19  1  0.00000000  0.49999962  0.49999949  1
