# generated using pymatgen
data_PaAgO3
_symmetry_space_group_name_H-M   'P 1'
_cell_length_a   5.88339449
_cell_length_b   6.05922428
_cell_length_c   8.48915736
_cell_angle_alpha   90.00000000
_cell_angle_beta   90.00000000
_cell_angle_gamma   90.00000000
_symmetry_Int_Tables_number   1
_chemical_formula_structural   PaAgO3
_chemical_formula_sum   'Pa4 Ag4 O12'
_cell_volume   302.62833037
_cell_formula_units_Z   4
loop_
 _symmetry_equiv_pos_site_id
 _symmetry_equiv_pos_as_xyz
  1  'x, y, z'
loop_
 _atom_site_type_symbol
 _atom_site_label
 _atom_site_symmetry_multiplicity
 _atom_site_fract_x
 _atom_site_fract_y
 _atom_site_fract_z
 _atom_site_occupancy
  Ag  Ag0  1  0.49611496  0.49877672  0.24999890  1
  Ag  Ag1  1  0.00388551  0.99877801  0.24999890  1
  Ag  Ag2  1  0.99611542  0.00122128  0.75000023  1
  Ag  Ag3  1  0.50388428  0.50122258  0.75000023  1
  O  O4  1  0.69767207  0.29877917  0.05432341  1
  O  O5  1  0.80232764  0.79877882  0.05432341  1
  O  O6  1  0.10294057  0.47039685  0.24999890  1
  O  O7  1  0.39705820  0.97039649  0.24999890  1
  O  O8  1  0.69767207  0.29877917  0.44567674  1
  O  O9  1  0.80232764  0.79877882  0.44567674  1
  O  O10  1  0.19767160  0.20122048  0.55432357  1
  O  O11  1  0.30232717  0.70122177  0.55432357  1
  O  O12  1  0.60294104  0.02960280  0.75000023  1
  O  O13  1  0.89705866  0.52960245  0.75000023  1
  O  O14  1  0.19767160  0.20122048  0.94567690  1
  O  O15  1  0.30232717  0.70122177  0.94567690  1
  Pa  Pa16  1  0.50000047  0.00000000  0.00000000  1
  Pa  Pa17  1  0.00000000  0.49999965  0.00000000  1
  Pa  Pa18  1  0.50000047  0.00000000  0.50000133  1
  Pa  Pa19  1  0.00000000  0.49999965  0.50000133  1
