# generated using pymatgen
data_PmInO3
_symmetry_space_group_name_H-M   'P 1'
_cell_length_a   5.61016804
_cell_length_b   5.92753629
_cell_length_c   8.15136790
_cell_angle_alpha   90.00000000
_cell_angle_beta   90.00000000
_cell_angle_gamma   90.00000000
_symmetry_Int_Tables_number   1
_chemical_formula_structural   PmInO3
_chemical_formula_sum   'Pm4 In4 O12'
_cell_volume   271.06945726
_cell_formula_units_Z   4
loop_
 _symmetry_equiv_pos_site_id
 _symmetry_equiv_pos_as_xyz
  1  'x, y, z'
loop_
 _atom_site_type_symbol
 _atom_site_label
 _atom_site_symmetry_multiplicity
 _atom_site_fract_x
 _atom_site_fract_y
 _atom_site_fract_z
 _atom_site_occupancy
  In  In0  1  0.50000107  0.00000000  0.00000000  1
  In  In1  1  0.00000000  0.49999863  0.00000000  1
  In  In2  1  0.50000107  0.00000000  0.50000074  1
  In  In3  1  0.00000000  0.49999863  0.50000074  1
  O  O4  1  0.68821290  0.30850929  0.06696545  1
  O  O5  1  0.81178674  0.80850960  0.06696545  1
  O  O6  1  0.13168946  0.44220564  0.24999976  1
  O  O7  1  0.36831161  0.94220764  0.24999976  1
  O  O8  1  0.68821290  0.30850929  0.43303407  1
  O  O9  1  0.81178674  0.80850960  0.43303407  1
  O  O10  1  0.18821183  0.19149102  0.56696619  1
  O  O11  1  0.31178745  0.69149134  0.56696619  1
  O  O12  1  0.63168874  0.05779298  0.75000050  1
  O  O13  1  0.86831089  0.55779161  0.75000050  1
  O  O14  1  0.18821183  0.19149102  0.93303358  1
  O  O15  1  0.31178745  0.69149134  0.93303358  1
  Pm  Pm16  1  0.97983161  0.06443824  0.24999976  1
  Pm  Pm17  1  0.52016802  0.56443686  0.24999976  1
  Pm  Pm18  1  0.47983055  0.43556207  0.75000050  1
  Pm  Pm19  1  0.02016874  0.93556239  0.75000050  1
