# generated using pymatgen
data_AcCrO3
_symmetry_space_group_name_H-M   'P 1'
_cell_length_a   5.63890177
_cell_length_b   5.59406974
_cell_length_c   7.92527399
_cell_angle_alpha   90.00000000
_cell_angle_beta   90.00000000
_cell_angle_gamma   90.00000000
_symmetry_Int_Tables_number   1
_chemical_formula_structural   AcCrO3
_chemical_formula_sum   'Ac4 Cr4 O12'
_cell_volume   249.99809012
_cell_formula_units_Z   4
loop_
 _symmetry_equiv_pos_site_id
 _symmetry_equiv_pos_as_xyz
  1  'x, y, z'
loop_
 _atom_site_type_symbol
 _atom_site_label
 _atom_site_symmetry_multiplicity
 _atom_site_fract_x
 _atom_site_fract_y
 _atom_site_fract_z
 _atom_site_occupancy
  Ac  Ac0  1  0.99685723  0.01533946  0.24999893  1
  Ac  Ac1  1  0.50314230  0.51533859  0.24999893  1
  Ac  Ac2  1  0.49685739  0.48466146  0.74999931  1
  Ac  Ac3  1  0.00314246  0.98466238  0.74999931  1
  Cr  Cr4  1  0.49999984  0.00000000  0.00000000  1
  Cr  Cr5  1  0.00000000  0.49999913  0.00000000  1
  Cr  Cr6  1  0.49999984  0.00000000  0.50000038  1
  Cr  Cr7  1  0.00000000  0.49999913  0.50000038  1
  O  O8  1  0.73004464  0.27014501  0.02970118  1
  O  O9  1  0.76995666  0.77014414  0.02970118  1
  O  O10  1  0.05544165  0.49459519  0.24999893  1
  O  O11  1  0.44455642  0.99459432  0.24999893  1
  O  O12  1  0.73004464  0.27014501  0.47029794  1
  O  O13  1  0.76995666  0.77014414  0.47029794  1
  O  O14  1  0.23004302  0.22985591  0.52970030  1
  O  O15  1  0.26995682  0.72985683  0.52970030  1
  O  O16  1  0.55544326  0.00540394  0.74999931  1
  O  O17  1  0.94455804  0.50540664  0.74999931  1
  O  O18  1  0.23004302  0.22985591  0.97029831  1
  O  O19  1  0.26995682  0.72985683  0.97029831  1
