# generated using pymatgen
data_TmInO3
_symmetry_space_group_name_H-M   'P 1'
_cell_length_a   5.45997200
_cell_length_b   5.78780900
_cell_length_c   8.29024700
_cell_angle_alpha   90.00000000
_cell_angle_beta   90.00000000
_cell_angle_gamma   90.00000000
_symmetry_Int_Tables_number   1
_chemical_formula_structural   TmInO3
_chemical_formula_sum   'Tm4 In4 O12'
_cell_volume   261.98237594
_cell_formula_units_Z   4
loop_
 _symmetry_equiv_pos_site_id
 _symmetry_equiv_pos_as_xyz
  1  'x, y, z'
loop_
 _atom_site_type_symbol
 _atom_site_label
 _atom_site_symmetry_multiplicity
 _atom_site_fract_x
 _atom_site_fract_y
 _atom_site_fract_z
 _atom_site_occupancy
  Tm  Tm0  1  0.97429500  0.06501100  0.75000000  1
  Tm  Tm1  1  0.47429500  0.43498900  0.25000000  1
  Tm  Tm2  1  0.52570500  0.56501100  0.75000000  1
  Tm  Tm3  1  0.02570500  0.93498900  0.25000000  1
  In  In4  1  0.50000000  0.00000000  0.00000000  1
  In  In5  1  0.50000000  0.00000000  0.50000000  1
  In  In6  1  0.00000000  0.50000000  0.00000000  1
  In  In7  1  0.00000000  0.50000000  0.50000000  1
  O  O8  1  0.65321300  0.07773600  0.25000000  1
  O  O9  1  0.18665700  0.18993200  0.08056000  1
  O  O10  1  0.18665700  0.18993200  0.41944000  1
  O  O11  1  0.68665700  0.31006800  0.58056000  1
  O  O12  1  0.68665700  0.31006800  0.91944000  1
  O  O13  1  0.15321300  0.42226400  0.75000000  1
  O  O14  1  0.84678700  0.57773600  0.25000000  1
  O  O15  1  0.31334300  0.68993200  0.08056000  1
  O  O16  1  0.31334300  0.68993200  0.41944000  1
  O  O17  1  0.81334300  0.81006800  0.58056000  1
  O  O18  1  0.81334300  0.81006800  0.91944000  1
  O  O19  1  0.34678700  0.92226400  0.75000000  1
