# generated using pymatgen
data_NaRuO3
_symmetry_space_group_name_H-M   'P 1'
_cell_length_a   5.28755929
_cell_length_b   5.37710562
_cell_length_c   7.54710370
_cell_angle_alpha   90.00000000
_cell_angle_beta   90.00000000
_cell_angle_gamma   90.00000000
_symmetry_Int_Tables_number   1
_chemical_formula_structural   NaRuO3
_chemical_formula_sum   'Na4 Ru4 O12'
_cell_volume   214.57747700
_cell_formula_units_Z   4
loop_
 _symmetry_equiv_pos_site_id
 _symmetry_equiv_pos_as_xyz
  1  'x, y, z'
loop_
 _atom_site_type_symbol
 _atom_site_label
 _atom_site_symmetry_multiplicity
 _atom_site_fract_x
 _atom_site_fract_y
 _atom_site_fract_z
 _atom_site_occupancy
  Na  Na0  1  0.98836149  0.04578671  0.25000054  1
  Na  Na1  1  0.51163871  0.54578619  0.25000054  1
  Na  Na2  1  0.48836143  0.45421276  0.75000030  1
  Na  Na3  1  0.01163864  0.95421224  0.75000030  1
  O  O4  1  0.70080538  0.29673027  0.04544525  1
  O  O5  1  0.79919671  0.79672975  0.04544525  1
  O  O6  1  0.08985999  0.48393135  0.25000054  1
  O  O7  1  0.41014008  0.98393083  0.25000054  1
  O  O8  1  0.70080538  0.29673027  0.45455583  1
  O  O9  1  0.79919671  0.79672975  0.45455583  1
  O  O10  1  0.20080342  0.20327107  0.54544500  1
  O  O11  1  0.29919475  0.70326869  0.54544500  1
  O  O12  1  0.58986005  0.01606812  0.75000030  1
  O  O13  1  0.91014015  0.51606760  0.75000030  1
  O  O14  1  0.20080342  0.20327107  0.95455559  1
  O  O15  1  0.29919475  0.70326869  0.95455559  1
  Ru  Ru16  1  0.50000007  0.00000000  0.00000000  1
  Ru  Ru17  1  0.00000000  0.49999948  0.00000000  1
  Ru  Ru18  1  0.50000007  0.00000000  0.49999976  1
  Ru  Ru19  1  0.00000000  0.49999948  0.49999976  1
