# generated using pymatgen
data_AlVO3
_symmetry_space_group_name_H-M   'P 1'
_cell_length_a   5.05776900
_cell_length_b   5.23369100
_cell_length_c   6.97899200
_cell_angle_alpha   90.00048714
_cell_angle_beta   89.99993318
_cell_angle_gamma   89.99945443
_symmetry_Int_Tables_number   1
_chemical_formula_structural   AlVO3
_chemical_formula_sum   'Al4 V4 O12'
_cell_volume   184.73950209
_cell_formula_units_Z   4
loop_
 _symmetry_equiv_pos_site_id
 _symmetry_equiv_pos_as_xyz
  1  'x, y, z'
loop_
 _atom_site_type_symbol
 _atom_site_label
 _atom_site_symmetry_multiplicity
 _atom_site_fract_x
 _atom_site_fract_y
 _atom_site_fract_z
 _atom_site_occupancy
  Al  Al0  1  0.99999900  0.50000000  0.00000000  1
  Al  Al1  1  0.99999800  0.50000100  0.50000000  1
  Al  Al2  1  0.50000200  0.00000000  0.99999900  1
  Al  Al3  1  0.50000100  0.99999800  0.50000100  1
  V  V4  1  0.99161000  0.94193800  0.75000600  1
  V  V5  1  0.50839800  0.44194200  0.74999400  1
  V  V6  1  0.49159800  0.55805600  0.25000000  1
  V  V7  1  0.00839400  0.05806200  0.25000100  1
  O  O8  1  0.11193200  0.43681300  0.25000200  1
  O  O9  1  0.16833900  0.17449700  0.55389700  1
  O  O10  1  0.16834000  0.17449600  0.94610000  1
  O  O11  1  0.33166000  0.67449500  0.94609900  1
  O  O12  1  0.33165700  0.67449800  0.55389800  1
  O  O13  1  0.38806300  0.93680900  0.25000300  1
  O  O14  1  0.61194200  0.06318700  0.74999600  1
  O  O15  1  0.66833800  0.32550300  0.44610300  1
  O  O16  1  0.66833800  0.32550600  0.05389900  1
  O  O17  1  0.83166500  0.82550700  0.05390000  1
  O  O18  1  0.83166200  0.82550400  0.44610400  1
  O  O19  1  0.88806300  0.56318900  0.74999800  1
