# generated using pymatgen
data_YbPrO3
_symmetry_space_group_name_H-M   'P 1'
_cell_length_a   5.81704500
_cell_length_b   6.10031400
_cell_length_c   8.55177100
_cell_angle_alpha   90.00000000
_cell_angle_beta   90.00000000
_cell_angle_gamma   90.00000000
_symmetry_Int_Tables_number   1
_chemical_formula_structural   YbPrO3
_chemical_formula_sum   'Yb4 Pr4 O12'
_cell_volume   303.46644435
_cell_formula_units_Z   4
loop_
 _symmetry_equiv_pos_site_id
 _symmetry_equiv_pos_as_xyz
  1  'x, y, z'
loop_
 _atom_site_type_symbol
 _atom_site_label
 _atom_site_symmetry_multiplicity
 _atom_site_fract_x
 _atom_site_fract_y
 _atom_site_fract_z
 _atom_site_occupancy
  Yb  Yb0  1  0.00000000  0.00000000  0.00000000  1
  Yb  Yb1  1  0.50000000  0.50000000  0.00000000  1
  Yb  Yb2  1  0.00000000  0.00000000  0.50000000  1
  Yb  Yb3  1  0.50000000  0.50000000  0.50000000  1
  Pr  Pr4  1  0.02686100  0.43402500  0.25000000  1
  Pr  Pr5  1  0.97313900  0.56597500  0.75000000  1
  Pr  Pr6  1  0.52686100  0.06597500  0.75000000  1
  Pr  Pr7  1  0.47313900  0.93402500  0.25000000  1
  O  O8  1  0.30481200  0.19484200  0.07709400  1
  O  O9  1  0.69518800  0.80515800  0.92290600  1
  O  O10  1  0.80481200  0.30515800  0.92290600  1
  O  O11  1  0.69518800  0.80515800  0.57709400  1
  O  O12  1  0.19518800  0.69484200  0.07709400  1
  O  O13  1  0.30481200  0.19484200  0.42290600  1
  O  O14  1  0.19518800  0.69484200  0.42290600  1
  O  O15  1  0.80481200  0.30515800  0.57709400  1
  O  O16  1  0.64461500  0.56777900  0.25000000  1
  O  O17  1  0.35538500  0.43222100  0.75000000  1
  O  O18  1  0.14461500  0.93222100  0.75000000  1
  O  O19  1  0.85538500  0.06777900  0.25000000  1
