# generated using pymatgen
data_HoCuO3
_symmetry_space_group_name_H-M   'P 1'
_cell_length_a   5.19535264
_cell_length_b   5.84015876
_cell_length_c   7.16284434
_cell_angle_alpha   90.00000000
_cell_angle_beta   90.00000000
_cell_angle_gamma   90.00000000
_symmetry_Int_Tables_number   1
_chemical_formula_structural   HoCuO3
_chemical_formula_sum   'Ho4 Cu4 O12'
_cell_volume   217.33276116
_cell_formula_units_Z   4
loop_
 _symmetry_equiv_pos_site_id
 _symmetry_equiv_pos_as_xyz
  1  'x, y, z'
loop_
 _atom_site_type_symbol
 _atom_site_label
 _atom_site_symmetry_multiplicity
 _atom_site_fract_x
 _atom_site_fract_y
 _atom_site_fract_z
 _atom_site_occupancy
  Cu  Cu0  1  0.50000071  0.00000000  0.00000000  1
  Cu  Cu1  1  0.00000000  0.50000011  0.00000000  1
  Cu  Cu2  1  0.50000071  0.00000000  0.49999970  1
  Cu  Cu3  1  0.00000000  0.50000011  0.49999970  1
  Ho  Ho4  1  0.97496750  0.09481420  0.24999985  1
  Ho  Ho5  1  0.52503270  0.59481431  0.24999985  1
  Ho  Ho6  1  0.47496680  0.40518419  0.74999955  1
  Ho  Ho7  1  0.02503391  0.90518430  0.74999955  1
  O  O8  1  0.70645830  0.33236768  0.05148374  1
  O  O9  1  0.79354190  0.83236778  0.05148374  1
  O  O10  1  0.11432140  0.46583836  0.24999985  1
  O  O11  1  0.38567931  0.96583847  0.24999985  1
  O  O12  1  0.70645830  0.33236768  0.44851596  1
  O  O13  1  0.79354190  0.83236778  0.44851596  1
  O  O14  1  0.20645759  0.16763243  0.55148483  1
  O  O15  1  0.29354312  0.66763254  0.55148483  1
  O  O16  1  0.61432019  0.03416174  0.74999955  1
  O  O17  1  0.88567809  0.53416185  0.74999955  1
  O  O18  1  0.20645759  0.16763243  0.94851566  1
  O  O19  1  0.29354312  0.66763254  0.94851566  1
