# generated using pymatgen
data_Yb3SiO
_symmetry_space_group_name_H-M   'P 1'
_cell_length_a   6.57434700
_cell_length_b   6.58953300
_cell_length_c   9.30523000
_cell_angle_alpha   90.00000000
_cell_angle_beta   90.00000000
_cell_angle_gamma   90.00000000
_symmetry_Int_Tables_number   1
_chemical_formula_structural   Yb3SiO
_chemical_formula_sum   'Yb12 Si4 O4'
_cell_volume   403.12002496
_cell_formula_units_Z   4
loop_
 _symmetry_equiv_pos_site_id
 _symmetry_equiv_pos_as_xyz
  1  'x, y, z'
loop_
 _atom_site_type_symbol
 _atom_site_label
 _atom_site_symmetry_multiplicity
 _atom_site_fract_x
 _atom_site_fract_y
 _atom_site_fract_z
 _atom_site_occupancy
  Yb  Yb0  1  0.76531900  0.23469100  0.01601100  1
  Yb  Yb1  1  0.23468100  0.76530900  0.51601100  1
  Yb  Yb2  1  0.99891400  0.53139400  0.25000000  1
  Yb  Yb3  1  0.26531900  0.26530900  0.01601100  1
  Yb  Yb4  1  0.23468100  0.76530900  0.98398900  1
  Yb  Yb5  1  0.26531900  0.26530900  0.48398900  1
  Yb  Yb6  1  0.00108600  0.46860600  0.75000000  1
  Yb  Yb7  1  0.49891400  0.96860600  0.25000000  1
  Yb  Yb8  1  0.50108600  0.03139400  0.75000000  1
  Yb  Yb9  1  0.76531900  0.23469100  0.48398900  1
  Yb  Yb10  1  0.73468100  0.73469100  0.51601100  1
  Yb  Yb11  1  0.73468100  0.73469100  0.98398900  1
  Si  Si12  1  0.50624800  0.49899300  0.25000000  1
  Si  Si13  1  0.99375200  0.99899300  0.75000000  1
  Si  Si14  1  0.49375200  0.50100700  0.75000000  1
  Si  Si15  1  0.00624800  0.00100700  0.25000000  1
  O  O16  1  0.00000000  0.50000000  0.50000000  1
  O  O17  1  0.50000000  0.00000000  0.00000000  1
  O  O18  1  0.50000000  0.00000000  0.50000000  1
  O  O19  1  0.00000000  0.50000000  0.00000000  1
