# generated using pymatgen
data_CaSnO3
_symmetry_space_group_name_H-M   'P 1'
_cell_length_a   5.58311000
_cell_length_b   5.75621900
_cell_length_c   8.00135600
_cell_angle_alpha   90.00000000
_cell_angle_beta   90.00000000
_cell_angle_gamma   90.00000000
_symmetry_Int_Tables_number   1
_chemical_formula_structural   CaSnO3
_chemical_formula_sum   'Ca4 Sn4 O12'
_cell_volume   257.14440948
_cell_formula_units_Z   4
loop_
 _symmetry_equiv_pos_site_id
 _symmetry_equiv_pos_as_xyz
  1  'x, y, z'
loop_
 _atom_site_type_symbol
 _atom_site_label
 _atom_site_symmetry_multiplicity
 _atom_site_fract_x
 _atom_site_fract_y
 _atom_site_fract_z
 _atom_site_occupancy
  Ca  Ca0  1  0.98567300  0.05349200  0.25000000  1
  Ca  Ca1  1  0.48567300  0.44650800  0.75000000  1
  Ca  Ca2  1  0.51432700  0.55349200  0.25000000  1
  Ca  Ca3  1  0.01432700  0.94650800  0.75000000  1
  Sn  Sn4  1  0.00000000  0.50000000  0.50000000  1
  Sn  Sn5  1  0.50000000  0.00000000  0.50000000  1
  Sn  Sn6  1  0.50000000  0.00000000  0.00000000  1
  Sn  Sn7  1  0.00000000  0.50000000  0.00000000  1
  O  O8  1  0.69688800  0.29950200  0.44383400  1
  O  O9  1  0.19688800  0.20049800  0.55616600  1
  O  O10  1  0.80311200  0.79950200  0.05616600  1
  O  O11  1  0.30311200  0.70049800  0.94383400  1
  O  O12  1  0.30311200  0.70049800  0.55616600  1
  O  O13  1  0.80311200  0.79950200  0.44383400  1
  O  O14  1  0.19688800  0.20049800  0.94383400  1
  O  O15  1  0.69688800  0.29950200  0.05616600  1
  O  O16  1  0.10690800  0.45794900  0.25000000  1
  O  O17  1  0.60690800  0.04205100  0.75000000  1
  O  O18  1  0.39309200  0.95794900  0.25000000  1
  O  O19  1  0.89309200  0.54205100  0.75000000  1
