# generated using pymatgen
data_NaCoO3
_symmetry_space_group_name_H-M   'P 1'
_cell_length_a   5.22966410
_cell_length_b   5.30470691
_cell_length_c   7.36991416
_cell_angle_alpha   90.00000000
_cell_angle_beta   90.00000000
_cell_angle_gamma   90.00000000
_symmetry_Int_Tables_number   1
_chemical_formula_structural   NaCoO3
_chemical_formula_sum   'Na4 Co4 O12'
_cell_volume   204.45494489
_cell_formula_units_Z   4
loop_
 _symmetry_equiv_pos_site_id
 _symmetry_equiv_pos_as_xyz
  1  'x, y, z'
loop_
 _atom_site_type_symbol
 _atom_site_label
 _atom_site_symmetry_multiplicity
 _atom_site_fract_x
 _atom_site_fract_y
 _atom_site_fract_z
 _atom_site_occupancy
  Co  Co0  1  0.50000152  0.00000000  0.00000000  1
  Co  Co1  1  0.00000000  0.50000123  0.00000000  1
  Co  Co2  1  0.50000152  0.00000000  0.49999904  1
  Co  Co3  1  0.00000000  0.50000123  0.49999904  1
  Na  Na4  1  0.99584216  0.01985784  0.25000020  1
  Na  Na5  1  0.50415858  0.51985907  0.25000020  1
  Na  Na6  1  0.49584255  0.48014151  0.75000059  1
  Na  Na7  1  0.00415705  0.98014086  0.75000059  1
  O  O8  1  0.73914307  0.29084170  0.02256743  1
  O  O9  1  0.76085766  0.79083917  0.02256743  1
  O  O10  1  0.45582277  0.00011876  0.25000020  1
  O  O11  1  0.04417492  0.50011623  0.25000020  1
  O  O12  1  0.73914307  0.29084170  0.47743161  1
  O  O13  1  0.76085766  0.79083917  0.47743161  1
  O  O14  1  0.23914347  0.20915953  0.52256782  1
  O  O15  1  0.26085614  0.70915888  0.52256782  1
  O  O16  1  0.95582429  0.49988247  0.75000059  1
  O  O17  1  0.54417644  0.99988182  0.75000059  1
  O  O18  1  0.23914347  0.20915953  0.97743337  1
  O  O19  1  0.26085614  0.70915888  0.97743337  1
