# generated using pymatgen
data_LaZrO3
_symmetry_space_group_name_H-M   'P 1'
_cell_length_a   5.76629087
_cell_length_b   5.98938308
_cell_length_c   8.18983988
_cell_angle_alpha   90.00000000
_cell_angle_beta   90.00000000
_cell_angle_gamma   90.00000000
_symmetry_Int_Tables_number   1
_chemical_formula_structural   LaZrO3
_chemical_formula_sum   'La4 Zr4 O12'
_cell_volume   282.84860941
_cell_formula_units_Z   4
loop_
 _symmetry_equiv_pos_site_id
 _symmetry_equiv_pos_as_xyz
  1  'x, y, z'
loop_
 _atom_site_type_symbol
 _atom_site_label
 _atom_site_symmetry_multiplicity
 _atom_site_fract_x
 _atom_site_fract_y
 _atom_site_fract_z
 _atom_site_occupancy
  La  La0  1  0.98750828  0.07110081  0.25000000  1
  La  La1  1  0.51249236  0.57110056  0.25000000  1
  La  La2  1  0.48750749  0.42889893  0.75000001  1
  La  La3  1  0.01249157  0.92889867  0.75000001  1
  O  O4  1  0.69210348  0.30071378  0.05432463  1
  O  O5  1  0.80789716  0.80071352  0.05432463  1
  O  O6  1  0.10603177  0.46973285  0.25000000  1
  O  O7  1  0.39396903  0.96973260  0.25000000  1
  O  O8  1  0.69210348  0.30071378  0.44567538  1
  O  O9  1  0.80789716  0.80071352  0.44567538  1
  O  O10  1  0.19210269  0.19928597  0.55432463  1
  O  O11  1  0.30789637  0.69928571  0.55432463  1
  O  O12  1  0.60603082  0.03026689  0.75000001  1
  O  O13  1  0.89396808  0.53026663  0.75000001  1
  O  O14  1  0.19210269  0.19928597  0.94567539  1
  O  O15  1  0.30789637  0.69928571  0.94567539  1
  Zr  Zr16  1  0.50000079  0.00000000  0.00000000  1
  Zr  Zr17  1  0.00000000  0.49999974  0.00000000  1
  Zr  Zr18  1  0.50000079  0.00000000  0.50000001  1
  Zr  Zr19  1  0.00000000  0.49999974  0.50000001  1
