# generated using pymatgen
data_KAuO3
_symmetry_space_group_name_H-M   'P 1'
_cell_length_a   5.70320170
_cell_length_b   5.63736692
_cell_length_c   8.22581801
_cell_angle_alpha   90.00000000
_cell_angle_beta   90.00000000
_cell_angle_gamma   90.00000000
_symmetry_Int_Tables_number   1
_chemical_formula_structural   KAuO3
_chemical_formula_sum   'K4 Au4 O12'
_cell_volume   264.46860894
_cell_formula_units_Z   4
loop_
 _symmetry_equiv_pos_site_id
 _symmetry_equiv_pos_as_xyz
  1  'x, y, z'
loop_
 _atom_site_type_symbol
 _atom_site_label
 _atom_site_symmetry_multiplicity
 _atom_site_fract_x
 _atom_site_fract_y
 _atom_site_fract_z
 _atom_site_occupancy
  Au  Au0  1  0.50000160  0.00000000  0.00000000  1
  Au  Au1  1  0.00000000  0.49999939  0.00000000  1
  Au  Au2  1  0.50000160  0.00000000  0.49999891  1
  Au  Au3  1  0.00000000  0.49999939  0.49999891  1
  K  K4  1  0.98995271  0.04569864  0.25000067  1
  K  K5  1  0.51004509  0.54569803  0.25000067  1
  K  K6  1  0.48995462  0.45430075  0.74999957  1
  K  K7  1  0.01004699  0.95430191  0.74999957  1
  O  O8  1  0.69637726  0.30534645  0.03027541  1
  O  O9  1  0.80362229  0.80534761  0.03027541  1
  O  O10  1  0.43287966  0.03765410  0.25000067  1
  O  O11  1  0.06712019  0.53765349  0.25000067  1
  O  O12  1  0.69637726  0.30534645  0.46972471  1
  O  O13  1  0.80362229  0.80534761  0.46972471  1
  O  O14  1  0.19637741  0.19465293  0.53027431  1
  O  O15  1  0.30362244  0.69465409  0.53027431  1
  O  O16  1  0.93287951  0.46234706  0.74999957  1
  O  O17  1  0.56712004  0.96234644  0.74999957  1
  O  O18  1  0.19637741  0.19465293  0.96972483  1
  O  O19  1  0.30362244  0.69465409  0.96972483  1
