# generated using pymatgen
data_ErGaO3
_symmetry_space_group_name_H-M   'P 1'
_cell_length_a   5.26975400
_cell_length_b   5.57494900
_cell_length_c   7.61208800
_cell_angle_alpha   90.00000000
_cell_angle_beta   90.00000000
_cell_angle_gamma   90.00000000
_symmetry_Int_Tables_number   1
_chemical_formula_structural   ErGaO3
_chemical_formula_sum   'Er4 Ga4 O12'
_cell_volume   223.63256306
_cell_formula_units_Z   4
loop_
 _symmetry_equiv_pos_site_id
 _symmetry_equiv_pos_as_xyz
  1  'x, y, z'
loop_
 _atom_site_type_symbol
 _atom_site_label
 _atom_site_symmetry_multiplicity
 _atom_site_fract_x
 _atom_site_fract_y
 _atom_site_fract_z
 _atom_site_occupancy
  Er  Er0  1  0.01921900  0.43150600  0.25000000  1
  Er  Er1  1  0.98078100  0.56849400  0.75000000  1
  Er  Er2  1  0.51921900  0.06849400  0.75000000  1
  Er  Er3  1  0.48078100  0.93150600  0.25000000  1
  Ga  Ga4  1  0.00000000  0.00000000  0.00000000  1
  Ga  Ga5  1  0.50000000  0.50000000  0.00000000  1
  Ga  Ga6  1  0.00000000  0.00000000  0.50000000  1
  Ga  Ga7  1  0.50000000  0.50000000  0.50000000  1
  O  O8  1  0.30704300  0.19455800  0.05853800  1
  O  O9  1  0.69295700  0.80544200  0.94146200  1
  O  O10  1  0.80704300  0.30544200  0.94146200  1
  O  O11  1  0.69295700  0.80544200  0.55853800  1
  O  O12  1  0.19295700  0.69455800  0.05853800  1
  O  O13  1  0.30704300  0.19455800  0.44146200  1
  O  O14  1  0.19295700  0.69455800  0.44146200  1
  O  O15  1  0.80704300  0.30544200  0.55853800  1
  O  O16  1  0.61470200  0.54123600  0.25000000  1
  O  O17  1  0.38529800  0.45876400  0.75000000  1
  O  O18  1  0.11470200  0.95876400  0.75000000  1
  O  O19  1  0.88529800  0.04123600  0.25000000  1
