# generated using pymatgen
data_InSnCl3
_symmetry_space_group_name_H-M   'P 1'
_cell_length_a   5.66954806
_cell_length_b   5.66954806
_cell_length_c   5.77651343
_cell_angle_alpha   88.63860675
_cell_angle_beta   88.63860675
_cell_angle_gamma   88.79573021
_symmetry_Int_Tables_number   1
_chemical_formula_structural   InSnCl3
_chemical_formula_sum   'In1 Sn1 Cl3'
_cell_volume   185.53527825
_cell_formula_units_Z   1
loop_
 _symmetry_equiv_pos_site_id
 _symmetry_equiv_pos_as_xyz
  1  'x, y, z'
loop_
 _atom_site_type_symbol
 _atom_site_label
 _atom_site_symmetry_multiplicity
 _atom_site_fract_x
 _atom_site_fract_y
 _atom_site_fract_z
 _atom_site_occupancy
  In  In0  1  0.08889900  0.08889900  0.91956400  1
  Sn  Sn1  1  0.48848400  0.48848400  0.53083900  1
  Cl  Cl2  1  0.00775000  0.46590100  0.55925300  1
  Cl  Cl3  1  0.45529800  0.45529800  0.98815700  1
  Cl  Cl4  1  0.46590100  0.00775000  0.55925300  1
