# generated using pymatgen
data_YbZnO3
_symmetry_space_group_name_H-M   'P 1'
_cell_length_a   5.25819816
_cell_length_b   5.54086835
_cell_length_c   7.44689255
_cell_angle_alpha   90.00000000
_cell_angle_beta   90.00000000
_cell_angle_gamma   90.00000000
_symmetry_Int_Tables_number   1
_chemical_formula_structural   YbZnO3
_chemical_formula_sum   'Yb4 Zn4 O12'
_cell_volume   216.96509337
_cell_formula_units_Z   4
loop_
 _symmetry_equiv_pos_site_id
 _symmetry_equiv_pos_as_xyz
  1  'x, y, z'
loop_
 _atom_site_type_symbol
 _atom_site_label
 _atom_site_symmetry_multiplicity
 _atom_site_fract_x
 _atom_site_fract_y
 _atom_site_fract_z
 _atom_site_occupancy
  O  O0  1  0.70025889  0.29563056  0.04497715  1
  O  O1  1  0.79974164  0.79562980  0.04497715  1
  O  O2  1  0.09322965  0.46681311  0.24999958  1
  O  O3  1  0.40677242  0.96681416  0.24999958  1
  O  O4  1  0.70025889  0.29563056  0.45502335  1
  O  O5  1  0.79974164  0.79562980  0.45502335  1
  O  O6  1  0.20025871  0.20437049  0.54497631  1
  O  O7  1  0.29973956  0.70436974  0.54497631  1
  O  O8  1  0.59322793  0.03318613  0.75000008  1
  O  O9  1  0.90677070  0.53318538  0.75000008  1
  O  O10  1  0.20025871  0.20437049  0.95502385  1
  O  O11  1  0.29973956  0.70436974  0.95502385  1
  Yb  Yb12  1  0.98059636  0.06426069  0.24999958  1
  Yb  Yb13  1  0.51940416  0.56425993  0.24999958  1
  Yb  Yb14  1  0.48059619  0.43573856  0.75000008  1
  Yb  Yb15  1  0.01940399  0.93573961  0.75000008  1
  Zn  Zn16  1  0.50000018  0.00000000  0.00000000  1
  Zn  Zn17  1  0.00000000  0.49999925  0.00000000  1
  Zn  Zn18  1  0.50000018  0.00000000  0.50000050  1
  Zn  Zn19  1  0.00000000  0.49999925  0.50000050  1
