# generated using pymatgen
data_SrErO3
_symmetry_space_group_name_H-M   'P 1'
_cell_length_a   5.93608201
_cell_length_b   6.10133310
_cell_length_c   8.40579259
_cell_angle_alpha   90.00000000
_cell_angle_beta   90.00000000
_cell_angle_gamma   90.00000000
_symmetry_Int_Tables_number   1
_chemical_formula_structural   SrErO3
_chemical_formula_sum   'Sr4 Er4 O12'
_cell_volume   304.44111081
_cell_formula_units_Z   4
loop_
 _symmetry_equiv_pos_site_id
 _symmetry_equiv_pos_as_xyz
  1  'x, y, z'
loop_
 _atom_site_type_symbol
 _atom_site_label
 _atom_site_symmetry_multiplicity
 _atom_site_fract_x
 _atom_site_fract_y
 _atom_site_fract_z
 _atom_site_occupancy
  Er  Er0  1  0.49999983  0.00000000  0.00000000  1
  Er  Er1  1  0.00000000  0.49999893  0.00000000  1
  Er  Er2  1  0.49999983  0.00000000  0.50000044  1
  Er  Er3  1  0.00000000  0.49999893  0.50000044  1
  O  O4  1  0.70427598  0.29380301  0.05698927  1
  O  O5  1  0.79572351  0.79380193  0.05698927  1
  O  O6  1  0.10750694  0.45555290  0.25000022  1
  O  O7  1  0.39249121  0.95555183  0.25000022  1
  O  O8  1  0.70427598  0.29380301  0.44301117  1
  O  O9  1  0.79572351  0.79380193  0.44301117  1
  O  O10  1  0.20427615  0.20619592  0.55698971  1
  O  O11  1  0.29572368  0.70619813  0.55698971  1
  O  O12  1  0.60750845  0.04444766  0.75000066  1
  O  O13  1  0.89249104  0.54444659  0.75000066  1
  O  O14  1  0.20427615  0.20619592  0.94301042  1
  O  O15  1  0.29572368  0.70619813  0.94301042  1
  Sr  Sr16  1  0.98505546  0.04862544  0.25000022  1
  Sr  Sr17  1  0.51494403  0.54862437  0.25000022  1
  Sr  Sr18  1  0.48505563  0.45137513  0.75000066  1
  Sr  Sr19  1  0.01494420  0.95137405  0.75000066  1
