# generated using pymatgen
data_CoMoO3
_symmetry_space_group_name_H-M   'P 1'
_cell_length_a   5.25022271
_cell_length_b   5.24887236
_cell_length_c   7.67173356
_cell_angle_alpha   90.00000000
_cell_angle_beta   90.00000000
_cell_angle_gamma   90.00000000
_symmetry_Int_Tables_number   1
_chemical_formula_structural   CoMoO3
_chemical_formula_sum   'Co4 Mo4 O12'
_cell_volume   211.41570689
_cell_formula_units_Z   4
loop_
 _symmetry_equiv_pos_site_id
 _symmetry_equiv_pos_as_xyz
  1  'x, y, z'
loop_
 _atom_site_type_symbol
 _atom_site_label
 _atom_site_symmetry_multiplicity
 _atom_site_fract_x
 _atom_site_fract_y
 _atom_site_fract_z
 _atom_site_occupancy
  Co  Co0  1  0.02277427  0.01375915  0.24999956  1
  Co  Co1  1  0.47722737  0.51375987  0.24999956  1
  Co  Co2  1  0.52277211  0.48624158  0.74999867  1
  Co  Co3  1  0.97723093  0.98624231  0.74999867  1
  Mo  Mo4  1  0.50000165  0.00000000  0.00000000  1
  Mo  Mo5  1  0.00000000  0.49999882  0.00000000  1
  Mo  Mo6  1  0.50000165  0.00000000  0.49999912  1
  Mo  Mo7  1  0.00000000  0.49999882  0.49999912  1
  O  O8  1  0.66582318  0.33119114  0.06352932  1
  O  O9  1  0.83417604  0.83118805  0.06352932  1
  O  O10  1  0.11208477  0.40241977  0.24999956  1
  O  O11  1  0.38791688  0.90242050  0.24999956  1
  O  O12  1  0.66582318  0.33119114  0.43647110  1
  O  O13  1  0.83417604  0.83118805  0.43647110  1
  O  O14  1  0.16582344  0.16880769  0.56352843  1
  O  O15  1  0.33417630  0.66881032  0.56352843  1
  O  O16  1  0.61208451  0.09757905  0.74999867  1
  O  O17  1  0.88791471  0.59757978  0.74999867  1
  O  O18  1  0.16582344  0.16880769  0.93647282  1
  O  O19  1  0.33417630  0.66881032  0.93647282  1
