# generated using pymatgen
data_AcPdO3
_symmetry_space_group_name_H-M   'P 1'
_cell_length_a   5.71458052
_cell_length_b   5.92396619
_cell_length_c   8.08105966
_cell_angle_alpha   90.00000000
_cell_angle_beta   90.00000000
_cell_angle_gamma   90.00000000
_symmetry_Int_Tables_number   1
_chemical_formula_structural   AcPdO3
_chemical_formula_sum   'Ac4 Pd4 O12'
_cell_volume   273.56796563
_cell_formula_units_Z   4
loop_
 _symmetry_equiv_pos_site_id
 _symmetry_equiv_pos_as_xyz
  1  'x, y, z'
loop_
 _atom_site_type_symbol
 _atom_site_label
 _atom_site_symmetry_multiplicity
 _atom_site_fract_x
 _atom_site_fract_y
 _atom_site_fract_z
 _atom_site_occupancy
  Ac  Ac0  1  0.98816352  0.05525690  0.25000063  1
  Ac  Ac1  1  0.51183459  0.55525806  0.25000063  1
  Ac  Ac2  1  0.48816356  0.44474258  0.75000065  1
  Ac  Ac3  1  0.01183464  0.94474375  0.75000065  1
  O  O4  1  0.70380844  0.29299965  0.04363289  1
  O  O5  1  0.79619142  0.79300081  0.04363289  1
  O  O6  1  0.08477788  0.47743858  0.25000063  1
  O  O7  1  0.41522208  0.97743806  0.25000063  1
  O  O8  1  0.70380844  0.29299965  0.45636713  1
  O  O9  1  0.79619142  0.79300081  0.45636713  1
  O  O10  1  0.20380849  0.20699983  0.54363167  1
  O  O11  1  0.29619147  0.70699931  0.54363167  1
  O  O12  1  0.58477783  0.02256090  0.75000065  1
  O  O13  1  0.91522378  0.52256038  0.75000065  1
  O  O14  1  0.20380849  0.20699983  0.95636715  1
  O  O15  1  0.29619147  0.70699931  0.95636715  1
  Pd  Pd16  1  0.49999995  0.00000000  0.00000000  1
  Pd  Pd17  1  0.00000000  0.49999948  0.00000000  1
  Pd  Pd18  1  0.49999995  0.00000000  0.50000002  1
  Pd  Pd19  1  0.00000000  0.49999948  0.50000002  1
