# generated using pymatgen
data_TlHgF3
_symmetry_space_group_name_H-M   'P 1'
_cell_length_a   4.61202300
_cell_length_b   4.61823016
_cell_length_c   4.63378249
_cell_angle_alpha   88.50175691
_cell_angle_beta   89.46870179
_cell_angle_gamma   89.84843039
_symmetry_Int_Tables_number   1
_chemical_formula_structural   TlHgF3
_chemical_formula_sum   'Tl1 Hg1 F3'
_cell_volume   98.65844275
_cell_formula_units_Z   1
loop_
 _symmetry_equiv_pos_site_id
 _symmetry_equiv_pos_as_xyz
  1  'x, y, z'
loop_
 _atom_site_type_symbol
 _atom_site_label
 _atom_site_symmetry_multiplicity
 _atom_site_fract_x
 _atom_site_fract_y
 _atom_site_fract_z
 _atom_site_occupancy
  Tl  Tl0  1  0.02676700  0.96331700  0.06774800  1
  Hg  Hg1  1  0.50320400  0.49574800  0.51994900  1
  F  F2  1  0.00011900  0.53001000  0.46887700  1
  F  F3  1  0.47789300  0.00766300  0.44780600  1
  F  F4  1  0.49201600  0.56325900  0.00562200  1
