# generated using pymatgen
data_YWO3
_symmetry_space_group_name_H-M   'P 1'
_cell_length_a   5.54625300
_cell_length_b   5.90712100
_cell_length_c   8.01414800
_cell_angle_alpha   90.00000000
_cell_angle_beta   90.00000000
_cell_angle_gamma   90.00000000
_symmetry_Int_Tables_number   1
_chemical_formula_structural   YWO3
_chemical_formula_sum   'Y4 W4 O12'
_cell_volume   262.56262280
_cell_formula_units_Z   4
loop_
 _symmetry_equiv_pos_site_id
 _symmetry_equiv_pos_as_xyz
  1  'x, y, z'
loop_
 _atom_site_type_symbol
 _atom_site_label
 _atom_site_symmetry_multiplicity
 _atom_site_fract_x
 _atom_site_fract_y
 _atom_site_fract_z
 _atom_site_occupancy
  Y  Y0  1  0.51935400  0.43234900  0.25000000  1
  Y  Y1  1  0.01935400  0.06765100  0.75000000  1
  Y  Y2  1  0.98064600  0.93234900  0.25000000  1
  Y  Y3  1  0.48064600  0.56765100  0.75000000  1
  W  W4  1  0.50000000  0.00000000  0.00000000  1
  W  W5  1  0.00000000  0.50000000  0.00000000  1
  W  W6  1  0.00000000  0.50000000  0.50000000  1
  W  W7  1  0.50000000  0.00000000  0.50000000  1
  O  O8  1  0.17864500  0.81395400  0.93194200  1
  O  O9  1  0.67864500  0.68604600  0.06805800  1
  O  O10  1  0.32135500  0.31395400  0.56805800  1
  O  O11  1  0.82135500  0.18604600  0.43194200  1
  O  O12  1  0.82135500  0.18604600  0.06805800  1
  O  O13  1  0.32135500  0.31395400  0.93194200  1
  O  O14  1  0.67864500  0.68604600  0.43194200  1
  O  O15  1  0.17864500  0.81395400  0.56805800  1
  O  O16  1  0.63907300  0.93477500  0.75000000  1
  O  O17  1  0.13907300  0.56522500  0.25000000  1
  O  O18  1  0.86092700  0.43477500  0.75000000  1
  O  O19  1  0.36092700  0.06522500  0.25000000  1
