# generated using pymatgen
data_BaTiO3
_symmetry_space_group_name_H-M   'P 1'
_cell_length_a   4.12278815
_cell_length_b   4.12278815
_cell_length_c   3.98753100
_cell_angle_alpha   90.00000000
_cell_angle_beta   90.00000000
_cell_angle_gamma   90.48824126
_symmetry_Int_Tables_number   1
_chemical_formula_structural   BaTiO3
_chemical_formula_sum   'Ba1 Ti1 O3'
_cell_volume   67.77512749
_cell_formula_units_Z   1
loop_
 _symmetry_equiv_pos_site_id
 _symmetry_equiv_pos_as_xyz
  1  'x, y, z'
loop_
 _atom_site_type_symbol
 _atom_site_label
 _atom_site_symmetry_multiplicity
 _atom_site_fract_x
 _atom_site_fract_y
 _atom_site_fract_z
 _atom_site_occupancy
  Ba  Ba0  1  0.99252100  0.00747900  0.00000000  1
  Ti  Ti1  1  0.47548600  0.52451400  0.50000000  1
  O  O2  1  0.50961200  0.97298700  0.50000000  1
  O  O3  1  0.02701300  0.49038800  0.50000000  1
  O  O4  1  0.51546800  0.48453200  0.00000000  1
