# generated using pymatgen
data_CdRuO3
_symmetry_space_group_name_H-M   'P 1'
_cell_length_a   5.40265483
_cell_length_b   5.45452400
_cell_length_c   7.67607622
_cell_angle_alpha   90.00000000
_cell_angle_beta   90.00000000
_cell_angle_gamma   90.00000000
_symmetry_Int_Tables_number   1
_chemical_formula_structural   CdRuO3
_chemical_formula_sum   'Cd4 Ru4 O12'
_cell_volume   226.20560271
_cell_formula_units_Z   4
loop_
 _symmetry_equiv_pos_site_id
 _symmetry_equiv_pos_as_xyz
  1  'x, y, z'
loop_
 _atom_site_type_symbol
 _atom_site_label
 _atom_site_symmetry_multiplicity
 _atom_site_fract_x
 _atom_site_fract_y
 _atom_site_fract_z
 _atom_site_occupancy
  Cd  Cd0  1  0.98698143  0.05172770  0.25000012  1
  Cd  Cd1  1  0.51301815  0.55172734  0.25000012  1
  Cd  Cd2  1  0.48698280  0.44827376  0.75000037  1
  Cd  Cd3  1  0.01301767  0.94827340  0.75000037  1
  O  O4  1  0.69784210  0.29999318  0.05621231  1
  O  O5  1  0.80215933  0.79999281  0.05621231  1
  O  O6  1  0.11065671  0.46795467  0.25000012  1
  O  O7  1  0.38934377  0.96795431  0.25000012  1
  O  O8  1  0.69784210  0.29999318  0.44378663  1
  O  O9  1  0.80215933  0.79999281  0.44378663  1
  O  O10  1  0.19784162  0.20000645  0.55621256  1
  O  O11  1  0.30215886  0.70000609  0.55621256  1
  O  O12  1  0.61065719  0.03204496  0.75000037  1
  O  O13  1  0.88934425  0.53204459  0.75000037  1
  O  O14  1  0.19784162  0.20000645  0.94378688  1
  O  O15  1  0.30215886  0.70000609  0.94378688  1
  Ru  Ru16  1  0.50000048  0.00000000  0.00000000  1
  Ru  Ru17  1  0.00000000  0.49999963  0.00000000  1
  Ru  Ru18  1  0.50000048  0.00000000  0.50000025  1
  Ru  Ru19  1  0.00000000  0.49999963  0.50000025  1
