# generated using pymatgen
data_Rb3ClO
_symmetry_space_group_name_H-M   'P 1'
_cell_length_a   7.71887200
_cell_length_b   7.73794900
_cell_length_c   10.95886200
_cell_angle_alpha   90.00000000
_cell_angle_beta   90.00000000
_cell_angle_gamma   90.00000000
_symmetry_Int_Tables_number   1
_chemical_formula_structural   Rb3ClO
_chemical_formula_sum   'Rb12 Cl4 O4'
_cell_volume   654.55351636
_cell_formula_units_Z   4
loop_
 _symmetry_equiv_pos_site_id
 _symmetry_equiv_pos_as_xyz
  1  'x, y, z'
loop_
 _atom_site_type_symbol
 _atom_site_label
 _atom_site_symmetry_multiplicity
 _atom_site_fract_x
 _atom_site_fract_y
 _atom_site_fract_z
 _atom_site_occupancy
  Rb  Rb0  1  0.07250000  0.47756000  0.25000000  1
  Rb  Rb1  1  0.20053200  0.20062400  0.53483000  1
  Rb  Rb2  1  0.20053200  0.20062400  0.96517000  1
  Rb  Rb3  1  0.29946800  0.70062400  0.96517000  1
  Rb  Rb4  1  0.29946800  0.70062400  0.53483000  1
  Rb  Rb5  1  0.42750000  0.97756000  0.25000000  1
  Rb  Rb6  1  0.57250000  0.02244000  0.75000000  1
  Rb  Rb7  1  0.70053200  0.29937600  0.03483000  1
  Rb  Rb8  1  0.70053200  0.29937600  0.46517000  1
  Rb  Rb9  1  0.79946800  0.79937600  0.03483000  1
  Rb  Rb10  1  0.79946800  0.79937600  0.46517000  1
  Rb  Rb11  1  0.92750000  0.52244000  0.75000000  1
  Cl  Cl12  1  0.99739300  0.03377800  0.25000000  1
  Cl  Cl13  1  0.50260700  0.53377800  0.25000000  1
  Cl  Cl14  1  0.49739300  0.46622200  0.75000000  1
  Cl  Cl15  1  0.00260700  0.96622200  0.75000000  1
  O  O16  1  0.00000000  0.50000000  0.00000000  1
  O  O17  1  0.00000000  0.50000000  0.50000000  1
  O  O18  1  0.50000000  0.00000000  0.00000000  1
  O  O19  1  0.50000000  0.00000000  0.50000000  1
