# generated using pymatgen
data_MnNCl3
_symmetry_space_group_name_H-M   'P 1'
_cell_length_a   6.64319472
_cell_length_b   6.64319472
_cell_length_c   9.49513800
_cell_angle_alpha   90.00000000
_cell_angle_beta   90.00000000
_cell_angle_gamma   90.34296178
_symmetry_Int_Tables_number   1
_chemical_formula_structural   MnNCl3
_chemical_formula_sum   'Mn4 N4 Cl12'
_cell_volume   419.03226642
_cell_formula_units_Z   4
loop_
 _symmetry_equiv_pos_site_id
 _symmetry_equiv_pos_as_xyz
  1  'x, y, z'
loop_
 _atom_site_type_symbol
 _atom_site_label
 _atom_site_symmetry_multiplicity
 _atom_site_fract_x
 _atom_site_fract_y
 _atom_site_fract_z
 _atom_site_occupancy
  Mn  Mn0  1  0.50000000  0.00000000  0.50000000  1
  Mn  Mn1  1  0.00000000  0.50000000  0.50000000  1
  Mn  Mn2  1  0.50000000  0.00000000  0.00000000  1
  Mn  Mn3  1  0.00000000  0.50000000  0.00000000  1
  N  N4  1  0.98615900  0.01384100  0.25000000  1
  N  N5  1  0.01384100  0.98615900  0.75000000  1
  N  N6  1  0.48608200  0.51391800  0.25000000  1
  N  N7  1  0.51391700  0.48608200  0.75000000  1
  Cl  Cl8  1  0.51987400  0.01717200  0.25000000  1
  Cl  Cl9  1  0.01717200  0.51987400  0.75000000  1
  Cl  Cl10  1  0.48012600  0.98282800  0.75000000  1
  Cl  Cl11  1  0.98282800  0.48012600  0.25000000  1
  Cl  Cl12  1  0.70421300  0.70421300  0.50000000  1
  Cl  Cl13  1  0.70421300  0.70421300  0.00000000  1
  Cl  Cl14  1  0.29578700  0.29578700  0.50000000  1
  Cl  Cl15  1  0.29578700  0.29578700  0.00000000  1
  Cl  Cl16  1  0.79193900  0.20806100  0.51807200  1
  Cl  Cl17  1  0.20806100  0.79193900  0.48192800  1
  Cl  Cl18  1  0.79193900  0.20806100  0.98192800  1
  Cl  Cl19  1  0.20806100  0.79193900  0.01807200  1
