# generated using pymatgen
data_MnCdO3
_symmetry_space_group_name_H-M   'P 1'
_cell_length_a   5.25918310
_cell_length_b   5.33796041
_cell_length_c   7.47760444
_cell_angle_alpha   90.00000000
_cell_angle_beta   90.00000000
_cell_angle_gamma   90.00000000
_symmetry_Int_Tables_number   1
_chemical_formula_structural   MnCdO3
_chemical_formula_sum   'Mn4 Cd4 O12'
_cell_volume   209.92111611
_cell_formula_units_Z   4
loop_
 _symmetry_equiv_pos_site_id
 _symmetry_equiv_pos_as_xyz
  1  'x, y, z'
loop_
 _atom_site_type_symbol
 _atom_site_label
 _atom_site_symmetry_multiplicity
 _atom_site_fract_x
 _atom_site_fract_y
 _atom_site_fract_z
 _atom_site_occupancy
  Cd  Cd0  1  0.98950158  0.04498535  0.25000119  1
  Cd  Cd1  1  0.51049753  0.54498531  0.25000119  1
  Cd  Cd2  1  0.48950378  0.45501461  0.75000089  1
  Cd  Cd3  1  0.01049783  0.95501458  0.75000089  1
  Mn  Mn4  1  0.49999971  0.00000000  0.00000000  1
  Mn  Mn5  1  0.00000000  0.49999996  0.00000000  1
  Mn  Mn6  1  0.49999971  0.00000000  0.49999970  1
  Mn  Mn7  1  0.00000000  0.49999996  0.49999970  1
  O  O8  1  0.70209573  0.29493100  0.04906384  1
  O  O9  1  0.79790339  0.79493096  0.04906384  1
  O  O10  1  0.09362481  0.47309455  0.25000119  1
  O  O11  1  0.40637680  0.97309639  0.25000119  1
  O  O12  1  0.70209573  0.29493100  0.45093586  1
  O  O13  1  0.79790339  0.79493096  0.45093586  1
  O  O14  1  0.20209412  0.20506896  0.54906355  1
  O  O15  1  0.29790558  0.70506892  0.54906355  1
  O  O16  1  0.59362261  0.02690541  0.75000089  1
  O  O17  1  0.90637651  0.52690350  0.75000089  1
  O  O18  1  0.20209412  0.20506896  0.95093557  1
  O  O19  1  0.29790558  0.70506892  0.95093557  1
