# generated using pymatgen
data_EuFeO3
_symmetry_space_group_name_H-M   'P 1'
_cell_length_a   5.49831100
_cell_length_b   5.58790000
_cell_length_c   7.79632700
_cell_angle_alpha   90.00000000
_cell_angle_beta   90.00000000
_cell_angle_gamma   90.00000000
_symmetry_Int_Tables_number   1
_chemical_formula_structural   EuFeO3
_chemical_formula_sum   'Eu4 Fe4 O12'
_cell_volume   239.53444459
_cell_formula_units_Z   4
loop_
 _symmetry_equiv_pos_site_id
 _symmetry_equiv_pos_as_xyz
  1  'x, y, z'
loop_
 _atom_site_type_symbol
 _atom_site_label
 _atom_site_symmetry_multiplicity
 _atom_site_fract_x
 _atom_site_fract_y
 _atom_site_fract_z
 _atom_site_occupancy
  Eu  Eu0  1  0.99218200  0.04345200  0.25000000  1
  Eu  Eu1  1  0.49218200  0.45654800  0.75000000  1
  Eu  Eu2  1  0.50781800  0.54345200  0.25000000  1
  Eu  Eu3  1  0.00781800  0.95654800  0.75000000  1
  Fe  Fe4  1  0.00000000  0.50000000  0.00000000  1
  Fe  Fe5  1  0.50000000  0.00000000  0.00000000  1
  Fe  Fe6  1  0.50000000  0.00000000  0.50000000  1
  Fe  Fe7  1  0.00000000  0.50000000  0.50000000  1
  O  O8  1  0.07940200  0.47851500  0.25000000  1
  O  O9  1  0.57940200  0.02148500  0.75000000  1
  O  O10  1  0.42059800  0.97851500  0.25000000  1
  O  O11  1  0.92059800  0.52148500  0.75000000  1
  O  O12  1  0.70517000  0.29499600  0.04132000  1
  O  O13  1  0.20517000  0.20500400  0.95868000  1
  O  O14  1  0.79483000  0.79499600  0.45868000  1
  O  O15  1  0.29483000  0.70500400  0.54132000  1
  O  O16  1  0.29483000  0.70500400  0.95868000  1
  O  O17  1  0.79483000  0.79499600  0.04132000  1
  O  O18  1  0.20517000  0.20500400  0.54132000  1
  O  O19  1  0.70517000  0.29499600  0.45868000  1
