# generated using pymatgen
data_DyLuO3
_symmetry_space_group_name_H-M   'P 1'
_cell_length_a   5.61251000
_cell_length_b   5.87614300
_cell_length_c   8.23375000
_cell_angle_alpha   90.00000000
_cell_angle_beta   90.00000000
_cell_angle_gamma   90.00000000
_symmetry_Int_Tables_number   1
_chemical_formula_structural   DyLuO3
_chemical_formula_sum   'Dy4 Lu4 O12'
_cell_volume   271.54834507
_cell_formula_units_Z   4
loop_
 _symmetry_equiv_pos_site_id
 _symmetry_equiv_pos_as_xyz
  1  'x, y, z'
loop_
 _atom_site_type_symbol
 _atom_site_label
 _atom_site_symmetry_multiplicity
 _atom_site_fract_x
 _atom_site_fract_y
 _atom_site_fract_z
 _atom_site_occupancy
  Dy  Dy0  1  0.98695200  0.05313800  0.25000000  1
  Dy  Dy1  1  0.48695200  0.44686200  0.75000000  1
  Dy  Dy2  1  0.51304800  0.55313800  0.25000000  1
  Dy  Dy3  1  0.01304800  0.94686200  0.75000000  1
  Lu  Lu4  1  0.50000000  0.00000000  0.00000000  1
  Lu  Lu5  1  0.50000000  0.00000000  0.50000000  1
  Lu  Lu6  1  0.00000000  0.50000000  0.00000000  1
  Lu  Lu7  1  0.00000000  0.50000000  0.50000000  1
  O  O8  1  0.63929400  0.07140000  0.75000000  1
  O  O9  1  0.17995200  0.18368600  0.57228800  1
  O  O10  1  0.17995200  0.18368600  0.92771200  1
  O  O11  1  0.67995200  0.31631400  0.42771200  1
  O  O12  1  0.67995200  0.31631400  0.07228800  1
  O  O13  1  0.13929400  0.42860000  0.25000000  1
  O  O14  1  0.86070600  0.57140000  0.75000000  1
  O  O15  1  0.32004800  0.68368600  0.57228800  1
  O  O16  1  0.32004800  0.68368600  0.92771200  1
  O  O17  1  0.82004800  0.81631400  0.07228800  1
  O  O18  1  0.82004800  0.81631400  0.42771200  1
  O  O19  1  0.36070600  0.92860000  0.25000000  1
