# generated using pymatgen
data_AlCoO3
_symmetry_space_group_name_H-M   'P 1'
_cell_length_a   4.76980900
_cell_length_b   4.92083200
_cell_length_c   7.30050200
_cell_angle_alpha   90.00000000
_cell_angle_beta   90.00000000
_cell_angle_gamma   90.00000000
_symmetry_Int_Tables_number   1
_chemical_formula_structural   AlCoO3
_chemical_formula_sum   'Al4 Co4 O12'
_cell_volume   171.35321261
_cell_formula_units_Z   4
loop_
 _symmetry_equiv_pos_site_id
 _symmetry_equiv_pos_as_xyz
  1  'x, y, z'
loop_
 _atom_site_type_symbol
 _atom_site_label
 _atom_site_symmetry_multiplicity
 _atom_site_fract_x
 _atom_site_fract_y
 _atom_site_fract_z
 _atom_site_occupancy
  Al  Al0  1  0.52303300  0.93329000  0.75000000  1
  Al  Al1  1  0.02303300  0.56671000  0.25000000  1
  Al  Al2  1  0.97696700  0.43329000  0.75000000  1
  Al  Al3  1  0.47696700  0.06671000  0.25000000  1
  Co  Co4  1  0.50000000  0.50000000  0.50000000  1
  Co  Co5  1  0.00000000  0.00000000  0.50000000  1
  Co  Co6  1  0.00000000  0.00000000  0.00000000  1
  Co  Co7  1  0.50000000  0.50000000  0.00000000  1
  O  O8  1  0.17877900  0.31870000  0.41685200  1
  O  O9  1  0.67877900  0.18130000  0.58314800  1
  O  O10  1  0.32122100  0.81870000  0.08314800  1
  O  O11  1  0.82122100  0.68130000  0.91685200  1
  O  O12  1  0.82122100  0.68130000  0.58314800  1
  O  O13  1  0.32122100  0.81870000  0.41685200  1
  O  O14  1  0.67877900  0.18130000  0.91685200  1
  O  O15  1  0.17877900  0.31870000  0.08314800  1
  O  O16  1  0.65135000  0.41497000  0.25000000  1
  O  O17  1  0.15135000  0.08503000  0.75000000  1
  O  O18  1  0.84865000  0.91497000  0.25000000  1
  O  O19  1  0.34865000  0.58503000  0.75000000  1
