# generated using pymatgen
data_MnZnO3
_symmetry_space_group_name_H-M   'P 1'
_cell_length_a   5.07781700
_cell_length_b   5.18824800
_cell_length_c   7.40550700
_cell_angle_alpha   90.00000000
_cell_angle_beta   90.00000000
_cell_angle_gamma   90.00000000
_symmetry_Int_Tables_number   1
_chemical_formula_structural   MnZnO3
_chemical_formula_sum   'Mn4 Zn4 O12'
_cell_volume   195.09788859
_cell_formula_units_Z   4
loop_
 _symmetry_equiv_pos_site_id
 _symmetry_equiv_pos_as_xyz
  1  'x, y, z'
loop_
 _atom_site_type_symbol
 _atom_site_label
 _atom_site_symmetry_multiplicity
 _atom_site_fract_x
 _atom_site_fract_y
 _atom_site_fract_z
 _atom_site_occupancy
  Mn  Mn0  1  0.50000000  0.00000000  0.00000000  1
  Mn  Mn1  1  0.50000000  0.00000000  0.50000000  1
  Mn  Mn2  1  0.00000000  0.50000000  0.00000000  1
  Mn  Mn3  1  0.00000000  0.50000000  0.50000000  1
  Zn  Zn4  1  0.99116400  0.04814800  0.25000000  1
  Zn  Zn5  1  0.49116400  0.45185200  0.75000000  1
  Zn  Zn6  1  0.50883600  0.54814800  0.25000000  1
  Zn  Zn7  1  0.00883600  0.95185200  0.75000000  1
  O  O8  1  0.62007000  0.06207000  0.75000000  1
  O  O9  1  0.18481800  0.18949200  0.56443000  1
  O  O10  1  0.18481800  0.18949200  0.93557000  1
  O  O11  1  0.68481800  0.31050800  0.06443000  1
  O  O12  1  0.68481800  0.31050800  0.43557000  1
  O  O13  1  0.12007000  0.43793000  0.25000000  1
  O  O14  1  0.87993000  0.56207000  0.75000000  1
  O  O15  1  0.31518200  0.68949200  0.93557000  1
  O  O16  1  0.31518200  0.68949200  0.56443000  1
  O  O17  1  0.81518200  0.81050800  0.06443000  1
  O  O18  1  0.81518200  0.81050800  0.43557000  1
  O  O19  1  0.37993000  0.93793000  0.25000000  1
