# generated using pymatgen
data_SrDyO3
_symmetry_space_group_name_H-M   'P 1'
_cell_length_a   5.97406111
_cell_length_b   6.14514773
_cell_length_c   8.46238095
_cell_angle_alpha   90.00000000
_cell_angle_beta   90.00000000
_cell_angle_gamma   90.00000000
_symmetry_Int_Tables_number   1
_chemical_formula_structural   SrDyO3
_chemical_formula_sum   'Sr4 Dy4 O12'
_cell_volume   310.66659753
_cell_formula_units_Z   4
loop_
 _symmetry_equiv_pos_site_id
 _symmetry_equiv_pos_as_xyz
  1  'x, y, z'
loop_
 _atom_site_type_symbol
 _atom_site_label
 _atom_site_symmetry_multiplicity
 _atom_site_fract_x
 _atom_site_fract_y
 _atom_site_fract_z
 _atom_site_occupancy
  Dy  Dy0  1  0.49999991  0.00000000  0.00000000  1
  Dy  Dy1  1  0.00000000  0.50000100  0.00000000  1
  Dy  Dy2  1  0.49999991  0.00000000  0.49999994  1
  Dy  Dy3  1  0.00000000  0.50000100  0.49999994  1
  O  O4  1  0.70746849  0.28979450  0.06168004  1
  O  O5  1  0.79253290  0.78979550  0.06168004  1
  O  O6  1  0.11340359  0.45001196  0.24999938  1
  O  O7  1  0.38659631  0.95001133  0.24999938  1
  O  O8  1  0.70746849  0.28979450  0.43832109  1
  O  O9  1  0.79253290  0.78979550  0.43832109  1
  O  O10  1  0.20746858  0.21020487  0.56167998  1
  O  O11  1  0.29253132  0.71020424  0.56167998  1
  O  O12  1  0.61340350  0.04998903  0.75000051  1
  O  O13  1  0.88659622  0.54999003  0.75000051  1
  O  O14  1  0.20746858  0.21020487  0.93831985  1
  O  O15  1  0.29253132  0.71020424  0.93831985  1
  Sr  Sr16  1  0.98196685  0.04976447  0.24999938  1
  Sr  Sr17  1  0.51803119  0.54976384  0.24999938  1
  Sr  Sr18  1  0.48196695  0.45023490  0.75000051  1
  Sr  Sr19  1  0.01803129  0.95023590  0.75000051  1
