# generated using pymatgen
data_NpBeO3
_symmetry_space_group_name_H-M   'P 1'
_cell_length_a   5.07708037
_cell_length_b   5.06914163
_cell_length_c   7.20959931
_cell_angle_alpha   90.00000000
_cell_angle_beta   90.00000000
_cell_angle_gamma   90.00000000
_symmetry_Int_Tables_number   1
_chemical_formula_structural   NpBeO3
_chemical_formula_sum   'Np4 Be4 O12'
_cell_volume   185.54941605
_cell_formula_units_Z   4
loop_
 _symmetry_equiv_pos_site_id
 _symmetry_equiv_pos_as_xyz
  1  'x, y, z'
loop_
 _atom_site_type_symbol
 _atom_site_label
 _atom_site_symmetry_multiplicity
 _atom_site_fract_x
 _atom_site_fract_y
 _atom_site_fract_z
 _atom_site_occupancy
  Be  Be0  1  0.49999996  0.00000000  0.00000000  1
  Be  Be1  1  0.00000000  0.49999984  0.00000000  1
  Be  Be2  1  0.49999996  0.00000000  0.50000005  1
  Be  Be3  1  0.00000000  0.49999984  0.50000005  1
  Np  Np4  1  0.99858967  0.02011583  0.25000002  1
  Np  Np5  1  0.50141022  0.52011764  0.25000002  1
  Np  Np6  1  0.49858970  0.47988401  0.75000007  1
  Np  Np7  1  0.00141223  0.97988385  0.75000007  1
  O  O8  1  0.71850350  0.28252318  0.02275300  1
  O  O9  1  0.78149639  0.78252499  0.02275300  1
  O  O10  1  0.04474028  0.49855778  0.25000002  1
  O  O11  1  0.45525968  0.99855762  0.25000002  1
  O  O12  1  0.71850350  0.28252318  0.47724844  1
  O  O13  1  0.78149639  0.78252499  0.47724844  1
  O  O14  1  0.21850156  0.21747469  0.52275166  1
  O  O15  1  0.28149643  0.71747453  0.52275166  1
  O  O16  1  0.54474024  0.00144206  0.75000007  1
  O  O17  1  0.95525965  0.50144190  0.75000007  1
  O  O18  1  0.21850156  0.21747469  0.97724710  1
  O  O19  1  0.28149643  0.71747453  0.97724710  1
