# generated using pymatgen
data_HoBeO3
_symmetry_space_group_name_H-M   'P 1'
_cell_length_a   4.93133056
_cell_length_b   5.30323122
_cell_length_c   7.03778350
_cell_angle_alpha   90.00000000
_cell_angle_beta   90.00000000
_cell_angle_gamma   90.00000000
_symmetry_Int_Tables_number   1
_chemical_formula_structural   HoBeO3
_chemical_formula_sum   'Ho4 Be4 O12'
_cell_volume   184.05201668
_cell_formula_units_Z   4
loop_
 _symmetry_equiv_pos_site_id
 _symmetry_equiv_pos_as_xyz
  1  'x, y, z'
loop_
 _atom_site_type_symbol
 _atom_site_label
 _atom_site_symmetry_multiplicity
 _atom_site_fract_x
 _atom_site_fract_y
 _atom_site_fract_z
 _atom_site_occupancy
  Be  Be0  1  0.49999893  0.00000000  0.00000000  1
  Be  Be1  1  0.00000000  0.49999894  0.00000000  1
  Be  Be2  1  0.49999893  0.00000000  0.49999975  1
  Be  Be3  1  0.00000000  0.49999894  0.49999975  1
  Ho  Ho4  1  0.97901975  0.06786617  0.25000059  1
  Ho  Ho5  1  0.52098110  0.56786511  0.25000059  1
  Ho  Ho6  1  0.47901879  0.43213466  0.75000034  1
  Ho  Ho7  1  0.02098014  0.93213360  0.75000034  1
  O  O8  1  0.69014031  0.28019144  0.03562627  1
  O  O9  1  0.80986053  0.78019227  0.03562627  1
  O  O10  1  0.06542048  0.49069518  0.25000059  1
  O  O11  1  0.43457845  0.99069412  0.25000059  1
  O  O12  1  0.69014031  0.28019144  0.46437348  1
  O  O13  1  0.80986053  0.78019227  0.46437348  1
  O  O14  1  0.19014138  0.21980750  0.53562602  1
  O  O15  1  0.30985958  0.71980833  0.53562602  1
  O  O16  1  0.56542143  0.00930565  0.75000034  1
  O  O17  1  0.93457738  0.50930459  0.75000034  1
  O  O18  1  0.19014138  0.21980750  0.96437323  1
  O  O19  1  0.30985958  0.71980833  0.96437323  1
