# generated using pymatgen
data_TbMgO3
_symmetry_space_group_name_H-M   'P 1'
_cell_length_a   5.37091425
_cell_length_b   5.72846446
_cell_length_c   7.47726037
_cell_angle_alpha   90.00000000
_cell_angle_beta   90.00000000
_cell_angle_gamma   90.00000000
_symmetry_Int_Tables_number   1
_chemical_formula_structural   TbMgO3
_chemical_formula_sum   'Tb4 Mg4 O12'
_cell_volume   230.05355301
_cell_formula_units_Z   4
loop_
 _symmetry_equiv_pos_site_id
 _symmetry_equiv_pos_as_xyz
  1  'x, y, z'
loop_
 _atom_site_type_symbol
 _atom_site_label
 _atom_site_symmetry_multiplicity
 _atom_site_fract_x
 _atom_site_fract_y
 _atom_site_fract_z
 _atom_site_occupancy
  Mg  Mg0  1  0.50000054  0.00000000  0.00000000  1
  Mg  Mg1  1  0.00000000  0.50000136  0.00000000  1
  Mg  Mg2  1  0.50000054  0.00000000  0.49999998  1
  Mg  Mg3  1  0.00000000  0.50000136  0.49999998  1
  O  O4  1  0.69037222  0.30255054  0.06230223  1
  O  O5  1  0.80962752  0.80255189  0.06230223  1
  O  O6  1  0.12783671  0.45122912  0.25000066  1
  O  O7  1  0.37216383  0.95123048  0.25000066  1
  O  O8  1  0.69037222  0.30255054  0.43769774  1
  O  O9  1  0.80962752  0.80255189  0.43769774  1
  O  O10  1  0.19037355  0.19744907  0.56230221  1
  O  O11  1  0.30962885  0.69744868  0.56230221  1
  O  O12  1  0.62783724  0.04877049  0.75000063  1
  O  O13  1  0.87216436  0.54877010  0.75000063  1
  O  O14  1  0.19037355  0.19744907  0.93769772  1
  O  O15  1  0.30962885  0.69744868  0.93769772  1
  Tb  Tb16  1  0.97694354  0.07639744  0.25000066  1
  Tb  Tb17  1  0.52305434  0.57639879  0.25000066  1
  Tb  Tb18  1  0.47694487  0.42360043  0.75000063  1
  Tb  Tb19  1  0.02305567  0.92360179  0.75000063  1
