# generated using pymatgen
data_SrTaO3
_symmetry_space_group_name_H-M   'P 1'
_cell_length_a   5.69131749
_cell_length_b   5.70308479
_cell_length_c   8.07819401
_cell_angle_alpha   90.00000000
_cell_angle_beta   90.00000000
_cell_angle_gamma   90.00000000
_symmetry_Int_Tables_number   1
_chemical_formula_structural   SrTaO3
_chemical_formula_sum   'Sr4 Ta4 O12'
_cell_volume   262.20255598
_cell_formula_units_Z   4
loop_
 _symmetry_equiv_pos_site_id
 _symmetry_equiv_pos_as_xyz
  1  'x, y, z'
loop_
 _atom_site_type_symbol
 _atom_site_label
 _atom_site_symmetry_multiplicity
 _atom_site_fract_x
 _atom_site_fract_y
 _atom_site_fract_z
 _atom_site_occupancy
  O  O0  1  0.72678075  0.27298560  0.01605186  1
  O  O1  1  0.77321991  0.77298518  0.01605186  1
  O  O2  1  0.03183270  0.49654005  0.25000019  1
  O  O3  1  0.46816752  0.99653963  0.25000019  1
  O  O4  1  0.72678075  0.27298560  0.48394728  1
  O  O5  1  0.77321991  0.77298518  0.48394728  1
  O  O6  1  0.22678053  0.22701398  0.51605223  1
  O  O7  1  0.27321969  0.72701532  0.51605223  1
  O  O8  1  0.53183116  0.00346128  0.75000056  1
  O  O9  1  0.96816774  0.50345911  0.75000056  1
  O  O10  1  0.22678053  0.22701398  0.98394765  1
  O  O11  1  0.27321969  0.72701532  0.98394765  1
  Sr  Sr12  1  0.99957172  0.01299823  0.25000019  1
  Sr  Sr13  1  0.50042894  0.51299956  0.25000019  1
  Sr  Sr14  1  0.49957150  0.48700135  0.75000056  1
  Sr  Sr15  1  0.00042872  0.98700093  0.75000056  1
  Ta  Ta16  1  0.50000022  0.00000000  0.00000000  1
  Ta  Ta17  1  0.00000000  0.49999958  0.00000000  1
  Ta  Ta18  1  0.50000022  0.00000000  0.50000037  1
  Ta  Ta19  1  0.00000000  0.49999958  0.50000037  1
