# generated using pymatgen
data_NdTaO3
_symmetry_space_group_name_H-M   'P 1'
_cell_length_a   5.49888824
_cell_length_b   6.01466514
_cell_length_c   7.79249016
_cell_angle_alpha   90.00000000
_cell_angle_beta   90.00000000
_cell_angle_gamma   90.00000000
_symmetry_Int_Tables_number   1
_chemical_formula_structural   NdTaO3
_chemical_formula_sum   'Nd4 Ta4 O12'
_cell_volume   257.72859661
_cell_formula_units_Z   4
loop_
 _symmetry_equiv_pos_site_id
 _symmetry_equiv_pos_as_xyz
  1  'x, y, z'
loop_
 _atom_site_type_symbol
 _atom_site_label
 _atom_site_symmetry_multiplicity
 _atom_site_fract_x
 _atom_site_fract_y
 _atom_site_fract_z
 _atom_site_occupancy
  Nd  Nd0  1  0.96586979  0.08239528  0.24999967  1
  Nd  Nd1  1  0.53412979  0.58239651  0.24999967  1
  Nd  Nd2  1  0.46586872  0.41760430  0.75000031  1
  Nd  Nd3  1  0.03413054  0.91760387  0.75000031  1
  O  O4  1  0.69175619  0.29378527  0.04271292  1
  O  O5  1  0.80824520  0.79378484  0.04271292  1
  O  O6  1  0.13143020  0.45903470  0.24999967  1
  O  O7  1  0.36857087  0.95903427  0.24999967  1
  O  O8  1  0.69175619  0.29378527  0.45728771  1
  O  O9  1  0.80824520  0.79378484  0.45728771  1
  O  O10  1  0.19175512  0.20621597  0.54271227  1
  O  O11  1  0.30824413  0.70621554  0.54271227  1
  O  O12  1  0.63142945  0.04096487  0.75000031  1
  O  O13  1  0.86857012  0.54096445  0.75000031  1
  O  O14  1  0.19175512  0.20621597  0.95728706  1
  O  O15  1  0.30824413  0.70621554  0.95728706  1
  Ta  Ta16  1  0.49999925  0.00000000  0.00000000  1
  Ta  Ta17  1  0.00000000  0.49999957  0.00000000  1
  Ta  Ta18  1  0.49999925  0.00000000  0.50000063  1
  Ta  Ta19  1  0.00000000  0.49999957  0.50000063  1
