# generated using pymatgen
data_RbAsO3
_symmetry_space_group_name_H-M   'P 1'
_cell_length_a   4.50861400
_cell_length_b   4.50861400
_cell_length_c   4.82096900
_cell_angle_alpha   90.00000000
_cell_angle_beta   90.00000000
_cell_angle_gamma   90.00000000
_symmetry_Int_Tables_number   1
_chemical_formula_structural   RbAsO3
_chemical_formula_sum   'Rb1 As1 O3'
_cell_volume   97.99873041
_cell_formula_units_Z   1
loop_
 _symmetry_equiv_pos_site_id
 _symmetry_equiv_pos_as_xyz
  1  'x, y, z'
loop_
 _atom_site_type_symbol
 _atom_site_label
 _atom_site_symmetry_multiplicity
 _atom_site_fract_x
 _atom_site_fract_y
 _atom_site_fract_z
 _atom_site_occupancy
  As  As0  1  0.00000000  0.00000000  0.16844954  1
  O  O1  1  0.50000067  0.00000000  0.64239783  1
  O  O2  1  0.00000000  0.50000067  0.64239783  1
  O  O3  1  0.50000067  0.50000067  0.95688211  1
  Rb  Rb4  1  0.50000067  0.50000067  0.48987247  1
