# generated using pymatgen
data_CeNiO3
_symmetry_space_group_name_H-M   'P 1'
_cell_length_a   5.31928400
_cell_length_b   5.71972700
_cell_length_c   7.67100000
_cell_angle_alpha   90.00000000
_cell_angle_beta   90.00000000
_cell_angle_gamma   90.00000000
_symmetry_Int_Tables_number   1
_chemical_formula_structural   CeNiO3
_chemical_formula_sum   'Ce4 Ni4 O12'
_cell_volume   233.38904211
_cell_formula_units_Z   4
loop_
 _symmetry_equiv_pos_site_id
 _symmetry_equiv_pos_as_xyz
  1  'x, y, z'
loop_
 _atom_site_type_symbol
 _atom_site_label
 _atom_site_symmetry_multiplicity
 _atom_site_fract_x
 _atom_site_fract_y
 _atom_site_fract_z
 _atom_site_occupancy
  Ce  Ce0  1  0.02406700  0.42337300  0.25000000  1
  Ce  Ce1  1  0.47593300  0.92337300  0.25000000  1
  Ce  Ce2  1  0.52406700  0.07662700  0.75000000  1
  Ce  Ce3  1  0.97593300  0.57662700  0.75000000  1
  Ni  Ni4  1  0.00000000  0.00000000  0.50000000  1
  Ni  Ni5  1  0.00000000  0.00000000  0.00000000  1
  Ni  Ni6  1  0.50000000  0.50000000  0.50000000  1
  Ni  Ni7  1  0.50000000  0.50000000  0.00000000  1
  O  O8  1  0.12724500  0.95252200  0.75000000  1
  O  O9  1  0.18209700  0.68785700  0.06433300  1
  O  O10  1  0.18209700  0.68785700  0.43566700  1
  O  O11  1  0.31790300  0.18785700  0.06433300  1
  O  O12  1  0.31790300  0.18785700  0.43566700  1
  O  O13  1  0.37275500  0.45252200  0.75000000  1
  O  O14  1  0.62724500  0.54747800  0.25000000  1
  O  O15  1  0.68209700  0.81214300  0.56433300  1
  O  O16  1  0.68209700  0.81214300  0.93566700  1
  O  O17  1  0.81790300  0.31214300  0.56433300  1
  O  O18  1  0.81790300  0.31214300  0.93566700  1
  O  O19  1  0.87275500  0.04747800  0.25000000  1
