# generated using pymatgen
data_CaInO3
_symmetry_space_group_name_H-M   'P 1'
_cell_length_a   5.76308773
_cell_length_b   5.98955474
_cell_length_c   7.59757128
_cell_angle_alpha   90.00000000
_cell_angle_beta   90.00000000
_cell_angle_gamma   90.00000000
_symmetry_Int_Tables_number   1
_chemical_formula_structural   CaInO3
_chemical_formula_sum   'Ca4 In4 O12'
_cell_volume   262.25546830
_cell_formula_units_Z   4
loop_
 _symmetry_equiv_pos_site_id
 _symmetry_equiv_pos_as_xyz
  1  'x, y, z'
loop_
 _atom_site_type_symbol
 _atom_site_label
 _atom_site_symmetry_multiplicity
 _atom_site_fract_x
 _atom_site_fract_y
 _atom_site_fract_z
 _atom_site_occupancy
  Ca  Ca0  1  0.98465098  0.06253887  0.25000095  1
  Ca  Ca1  1  0.51535048  0.56253764  0.25000095  1
  Ca  Ca2  1  0.48465165  0.43746324  0.75000020  1
  Ca  Ca3  1  0.01534768  0.93746201  0.75000020  1
  In  In4  1  0.49999933  0.00000000  0.00000000  1
  In  In5  1  0.00000000  0.49999877  0.00000000  1
  In  In6  1  0.49999933  0.00000000  0.50000057  1
  In  In7  1  0.00000000  0.49999877  0.50000057  1
  O  O8  1  0.70173320  0.29136223  0.07689168  1
  O  O9  1  0.79826826  0.79136266  0.07689168  1
  O  O10  1  0.14706006  0.42238866  0.25000095  1
  O  O11  1  0.35293927  0.92239077  0.25000095  1
  O  O12  1  0.70173320  0.29136223  0.42310890  1
  O  O13  1  0.79826826  0.79136266  0.42310890  1
  O  O14  1  0.20173387  0.20863821  0.57689225  1
  O  O15  1  0.29826719  0.70863698  0.57689225  1
  O  O16  1  0.64706112  0.07761011  0.75000020  1
  O  O17  1  0.85293860  0.57760888  0.75000020  1
  O  O18  1  0.20173387  0.20863821  0.92310815  1
  O  O19  1  0.29826719  0.70863698  0.92310815  1
