# generated using pymatgen
data_NdGaO3
_symmetry_space_group_name_H-M   'P 1'
_cell_length_a   5.47123600
_cell_length_b   5.61586700
_cell_length_c   7.80168300
_cell_angle_alpha   90.00000000
_cell_angle_beta   90.00000000
_cell_angle_gamma   90.00000000
_symmetry_Int_Tables_number   1
_chemical_formula_structural   NdGaO3
_chemical_formula_sum   'Nd4 Ga4 O12'
_cell_volume   239.71243428
_cell_formula_units_Z   4
loop_
 _symmetry_equiv_pos_site_id
 _symmetry_equiv_pos_as_xyz
  1  'x, y, z'
loop_
 _atom_site_type_symbol
 _atom_site_label
 _atom_site_symmetry_multiplicity
 _atom_site_fract_x
 _atom_site_fract_y
 _atom_site_fract_z
 _atom_site_occupancy
  Nd  Nd0  1  0.98689800  0.44819800  0.75000000  1
  Nd  Nd1  1  0.01310200  0.55180200  0.25000000  1
  Nd  Nd2  1  0.51310200  0.94819800  0.75000000  1
  Nd  Nd3  1  0.48689800  0.05180200  0.25000000  1
  Ga  Ga4  1  0.50000000  0.50000000  0.50000000  1
  Ga  Ga5  1  0.50000000  0.50000000  0.00000000  1
  Ga  Ga6  1  0.00000000  0.00000000  0.50000000  1
  Ga  Ga7  1  0.00000000  0.00000000  0.00000000  1
  O  O8  1  0.70821900  0.20706000  0.95324300  1
  O  O9  1  0.29178100  0.79294000  0.45324300  1
  O  O10  1  0.79178100  0.70706000  0.95324300  1
  O  O11  1  0.20821900  0.29294000  0.45324300  1
  O  O12  1  0.70821900  0.20706000  0.54675700  1
  O  O13  1  0.29178100  0.79294000  0.04675700  1
  O  O14  1  0.79178100  0.70706000  0.54675700  1
  O  O15  1  0.20821900  0.29294000  0.04675700  1
  O  O16  1  0.91258000  0.97723400  0.25000000  1
  O  O17  1  0.08742000  0.02276600  0.75000000  1
  O  O18  1  0.58742000  0.47723400  0.25000000  1
  O  O19  1  0.41258000  0.52276600  0.75000000  1
