# generated using pymatgen
data_CsCaCl3
_symmetry_space_group_name_H-M   'P 1'
_cell_length_a   5.46191220
_cell_length_b   5.46203832
_cell_length_c   5.46445832
_cell_angle_alpha   89.97426593
_cell_angle_beta   90.03123415
_cell_angle_gamma   89.97633290
_symmetry_Int_Tables_number   1
_chemical_formula_structural   CsCaCl3
_chemical_formula_sum   'Cs1 Ca1 Cl3'
_cell_volume   163.02207991
_cell_formula_units_Z   1
loop_
 _symmetry_equiv_pos_site_id
 _symmetry_equiv_pos_as_xyz
  1  'x, y, z'
loop_
 _atom_site_type_symbol
 _atom_site_label
 _atom_site_symmetry_multiplicity
 _atom_site_fract_x
 _atom_site_fract_y
 _atom_site_fract_z
 _atom_site_occupancy
  Cs  Cs0  1  0.00065380  0.00692858  0.00244681  1
  Ca  Ca1  1  0.49948186  0.51196534  0.50054573  1
  Cl  Cl2  1  0.99960385  0.51548341  0.50668368  1
  Cl  Cl3  1  0.49766471  0.01251086  0.49930164  1
  Cl  Cl4  1  0.50259378  0.51311380  0.00102213  1
