# generated using pymatgen
data_PaBeO3
_symmetry_space_group_name_H-M   'P 1'
_cell_length_a   5.08483691
_cell_length_b   5.16760156
_cell_length_c   7.29667432
_cell_angle_alpha   90.00000000
_cell_angle_beta   90.00000000
_cell_angle_gamma   90.00000000
_symmetry_Int_Tables_number   1
_chemical_formula_structural   PaBeO3
_chemical_formula_sum   'Pa4 Be4 O12'
_cell_volume   191.73041455
_cell_formula_units_Z   4
loop_
 _symmetry_equiv_pos_site_id
 _symmetry_equiv_pos_as_xyz
  1  'x, y, z'
loop_
 _atom_site_type_symbol
 _atom_site_label
 _atom_site_symmetry_multiplicity
 _atom_site_fract_x
 _atom_site_fract_y
 _atom_site_fract_z
 _atom_site_occupancy
  Be  Be0  1  0.50000030  0.00000000  0.00000000  1
  Be  Be1  1  0.00000000  0.49999985  0.00000000  1
  Be  Be2  1  0.50000030  0.00000000  0.50000039  1
  Be  Be3  1  0.00000000  0.49999985  0.50000039  1
  O  O4  1  0.72696137  0.27233330  0.02115347  1
  O  O5  1  0.77303758  0.77233315  0.02115347  1
  O  O6  1  0.04112816  0.49815567  0.25000019  1
  O  O7  1  0.45887214  0.99815582  0.25000019  1
  O  O8  1  0.72696137  0.27233330  0.47884692  1
  O  O9  1  0.77303758  0.77233315  0.47884692  1
  O  O10  1  0.22696303  0.22766655  0.52115386  1
  O  O11  1  0.27303727  0.72766640  0.52115386  1
  O  O12  1  0.54112847  0.00184418  0.75000058  1
  O  O13  1  0.95887244  0.50184403  0.75000058  1
  O  O14  1  0.22696303  0.22766655  0.97884593  1
  O  O15  1  0.27303727  0.72766640  0.97884593  1
  Pa  Pa16  1  0.99851187  0.01383814  0.25000019  1
  Pa  Pa17  1  0.50148904  0.51383799  0.25000019  1
  Pa  Pa18  1  0.49851156  0.48616171  0.75000058  1
  Pa  Pa19  1  0.00148874  0.98616156  0.75000058  1
