# generated using pymatgen
data_SrReO3
_symmetry_space_group_name_H-M   'P 1'
_cell_length_a   5.60342414
_cell_length_b   5.61310761
_cell_length_c   7.91095348
_cell_angle_alpha   90.00000000
_cell_angle_beta   90.00000000
_cell_angle_gamma   90.00000000
_symmetry_Int_Tables_number   1
_chemical_formula_structural   SrReO3
_chemical_formula_sum   'Sr4 Re4 O12'
_cell_volume   248.82023440
_cell_formula_units_Z   4
loop_
 _symmetry_equiv_pos_site_id
 _symmetry_equiv_pos_as_xyz
  1  'x, y, z'
loop_
 _atom_site_type_symbol
 _atom_site_label
 _atom_site_symmetry_multiplicity
 _atom_site_fract_x
 _atom_site_fract_y
 _atom_site_fract_z
 _atom_site_occupancy
  O  O0  1  0.72525297  0.27459833  0.02329176  1
  O  O1  1  0.77474771  0.77459944  0.02329176  1
  O  O2  1  0.45670468  0.00016747  0.25000021  1
  O  O3  1  0.04329496  0.50016679  0.25000021  1
  O  O4  1  0.72525297  0.27459833  0.47670739  1
  O  O5  1  0.77474771  0.77459944  0.47670739  1
  O  O6  1  0.22525334  0.22539921  0.52329090  1
  O  O7  1  0.27474629  0.72540031  0.52329090  1
  O  O8  1  0.95670609  0.49983364  0.74999935  1
  O  O9  1  0.54329459  0.99983296  0.74999935  1
  O  O10  1  0.22525334  0.22539921  0.97670907  1
  O  O11  1  0.27474629  0.72540031  0.97670907  1
  Re  Re12  1  0.50000142  0.00000000  0.00000000  1
  Re  Re13  1  0.00000000  0.49999932  0.00000000  1
  Re  Re14  1  0.50000142  0.00000000  0.49999915  1
  Re  Re15  1  0.00000000  0.49999932  0.49999915  1
  Sr  Sr16  1  0.99720276  0.02032029  0.25000021  1
  Sr  Sr17  1  0.50279792  0.52032140  0.25000021  1
  Sr  Sr18  1  0.49720134  0.47967903  0.74999935  1
  Sr  Sr19  1  0.00279650  0.97968013  0.74999935  1
