# generated using pymatgen
data_LiGdO3
_symmetry_space_group_name_H-M   'P 1'
_cell_length_a   4.99953918
_cell_length_b   5.79776039
_cell_length_c   7.30815118
_cell_angle_alpha   90.00000000
_cell_angle_beta   90.00000000
_cell_angle_gamma   90.00000000
_symmetry_Int_Tables_number   1
_chemical_formula_structural   LiGdO3
_chemical_formula_sum   'Li4 Gd4 O12'
_cell_volume   211.83502220
_cell_formula_units_Z   4
loop_
 _symmetry_equiv_pos_site_id
 _symmetry_equiv_pos_as_xyz
  1  'x, y, z'
loop_
 _atom_site_type_symbol
 _atom_site_label
 _atom_site_symmetry_multiplicity
 _atom_site_fract_x
 _atom_site_fract_y
 _atom_site_fract_z
 _atom_site_occupancy
  Gd  Gd0  1  0.96150462  0.10520097  0.25000030  1
  Gd  Gd1  1  0.53849563  0.60520266  0.25000030  1
  Gd  Gd2  1  0.46150253  0.39479900  0.74999954  1
  Gd  Gd3  1  0.03849755  0.89479724  0.74999954  1
  Li  Li4  1  0.50000008  0.00000000  0.00000000  1
  Li  Li5  1  0.00000000  0.49999997  0.00000000  1
  Li  Li6  1  0.50000008  0.00000000  0.49999923  1
  Li  Li7  1  0.00000000  0.49999997  0.49999923  1
  O  O8  1  0.66252306  0.30123528  0.04939006  1
  O  O9  1  0.83747718  0.80123698  0.04939006  1
  O  O10  1  0.41444420  0.00987795  0.25000030  1
  O  O11  1  0.08555789  0.50987792  0.25000030  1
  O  O12  1  0.66252306  0.30123528  0.45060918  1
  O  O13  1  0.83747718  0.80123698  0.45060918  1
  O  O14  1  0.16252298  0.19876468  0.54938929  1
  O  O15  1  0.33747710  0.69876292  0.54938929  1
  O  O16  1  0.91444228  0.49012201  0.74999954  1
  O  O17  1  0.58555797  0.99012198  0.74999954  1
  O  O18  1  0.16252298  0.19876468  0.95061115  1
  O  O19  1  0.33747710  0.69876292  0.95061115  1
