# generated using pymatgen
data_KPaO3
_symmetry_space_group_name_H-M   'P 1'
_cell_length_a   6.18226066
_cell_length_b   6.20251986
_cell_length_c   8.75581665
_cell_angle_alpha   90.00000000
_cell_angle_beta   90.00000000
_cell_angle_gamma   90.00000000
_symmetry_Int_Tables_number   1
_chemical_formula_structural   KPaO3
_chemical_formula_sum   'K4 Pa4 O12'
_cell_volume   335.74699486
_cell_formula_units_Z   4
loop_
 _symmetry_equiv_pos_site_id
 _symmetry_equiv_pos_as_xyz
  1  'x, y, z'
loop_
 _atom_site_type_symbol
 _atom_site_label
 _atom_site_symmetry_multiplicity
 _atom_site_fract_x
 _atom_site_fract_y
 _atom_site_fract_z
 _atom_site_occupancy
  K  K0  1  0.00027013  0.00387101  0.24999952  1
  K  K1  1  0.49972982  0.50387102  0.24999952  1
  K  K2  1  0.50027169  0.49612900  0.74999972  1
  K  K3  1  0.99972977  0.99612740  0.74999972  1
  O  O4  1  0.73179703  0.26810233  0.01673402  1
  O  O5  1  0.76820281  0.76810234  0.01673402  1
  O  O6  1  0.03326291  0.49608386  0.24999952  1
  O  O7  1  0.46673542  0.99608387  0.24999952  1
  O  O8  1  0.73179703  0.26810233  0.48326617  1
  O  O9  1  0.76820281  0.76810234  0.48326617  1
  O  O10  1  0.23179709  0.23189607  0.51673421  1
  O  O11  1  0.26820286  0.73189608  0.51673421  1
  O  O12  1  0.53326286  0.00391454  0.74999972  1
  O  O13  1  0.96673698  0.50391455  0.74999972  1
  O  O14  1  0.23179709  0.23189607  0.98326636  1
  O  O15  1  0.26820286  0.73189608  0.98326636  1
  Pa  Pa16  1  0.49999995  0.00000000  0.00000000  1
  Pa  Pa17  1  0.00000000  0.50000001  0.00000000  1
  Pa  Pa18  1  0.49999995  0.00000000  0.50000019  1
  Pa  Pa19  1  0.00000000  0.50000001  0.50000019  1
