# generated using pymatgen
data_ErAlO3
_symmetry_space_group_name_H-M   'P 1'
_cell_length_a   5.17637800
_cell_length_b   5.37965600
_cell_length_c   7.40977400
_cell_angle_alpha   90.00000000
_cell_angle_beta   90.00000000
_cell_angle_gamma   90.00000000
_symmetry_Int_Tables_number   1
_chemical_formula_structural   ErAlO3
_chemical_formula_sum   'Er4 Al4 O12'
_cell_volume   206.34096183
_cell_formula_units_Z   4
loop_
 _symmetry_equiv_pos_site_id
 _symmetry_equiv_pos_as_xyz
  1  'x, y, z'
loop_
 _atom_site_type_symbol
 _atom_site_label
 _atom_site_symmetry_multiplicity
 _atom_site_fract_x
 _atom_site_fract_y
 _atom_site_fract_z
 _atom_site_occupancy
  Er  Er0  1  0.01546700  0.94071600  0.75000000  1
  Er  Er1  1  0.48453300  0.44071600  0.75000000  1
  Er  Er2  1  0.51546700  0.55928400  0.25000000  1
  Er  Er3  1  0.98453300  0.05928400  0.25000000  1
  Al  Al4  1  0.00000000  0.50000000  0.00000000  1
  Al  Al5  1  0.00000000  0.50000000  0.50000000  1
  Al  Al6  1  0.50000000  0.00000000  0.00000000  1
  Al  Al7  1  0.50000000  0.00000000  0.50000000  1
  O  O8  1  0.09397200  0.47267900  0.25000000  1
  O  O9  1  0.20300300  0.20391600  0.54919000  1
  O  O10  1  0.20300300  0.20391600  0.95081000  1
  O  O11  1  0.29699700  0.70391600  0.95081000  1
  O  O12  1  0.29699700  0.70391600  0.54919000  1
  O  O13  1  0.40602800  0.97267900  0.25000000  1
  O  O14  1  0.59397200  0.02732100  0.75000000  1
  O  O15  1  0.70300300  0.29608400  0.04919000  1
  O  O16  1  0.70300300  0.29608400  0.45081000  1
  O  O17  1  0.79699700  0.79608400  0.04919000  1
  O  O18  1  0.79699700  0.79608400  0.45081000  1
  O  O19  1  0.90602800  0.52732100  0.75000000  1
