# generated using pymatgen
data_EuOsO3
_symmetry_space_group_name_H-M   'P 1'
_cell_length_a   5.37703075
_cell_length_b   5.62414133
_cell_length_c   7.73424259
_cell_angle_alpha   90.00000000
_cell_angle_beta   90.00000000
_cell_angle_gamma   90.00000000
_symmetry_Int_Tables_number   1
_chemical_formula_structural   EuOsO3
_chemical_formula_sum   'Eu4 Os4 O12'
_cell_volume   233.89262925
_cell_formula_units_Z   4
loop_
 _symmetry_equiv_pos_site_id
 _symmetry_equiv_pos_as_xyz
  1  'x, y, z'
loop_
 _atom_site_type_symbol
 _atom_site_label
 _atom_site_symmetry_multiplicity
 _atom_site_fract_x
 _atom_site_fract_y
 _atom_site_fract_z
 _atom_site_occupancy
  Eu  Eu0  1  0.98430533  0.05529200  0.24999992  1
  Eu  Eu1  1  0.51569540  0.55529188  0.24999992  1
  Eu  Eu2  1  0.48430446  0.44470789  0.74999975  1
  Eu  Eu3  1  0.01569640  0.94470777  0.74999975  1
  O  O4  1  0.70034749  0.29491257  0.04332163  1
  O  O5  1  0.79965323  0.79491246  0.04332163  1
  O  O6  1  0.08443508  0.48103521  0.24999992  1
  O  O7  1  0.41556578  0.98103509  0.24999992  1
  O  O8  1  0.70034749  0.29491257  0.45667820  1
  O  O9  1  0.79965323  0.79491246  0.45667820  1
  O  O10  1  0.20034849  0.20508731  0.54332276  1
  O  O11  1  0.29965423  0.70508897  0.54332276  1
  O  O12  1  0.58443408  0.01896467  0.74999975  1
  O  O13  1  0.91556664  0.51896455  0.74999975  1
  O  O14  1  0.20034849  0.20508731  0.95667803  1
  O  O15  1  0.29965423  0.70508897  0.95667803  1
  Os  Os16  1  0.49999900  0.00000000  0.00000000  1
  Os  Os17  1  0.00000000  0.49999988  0.00000000  1
  Os  Os18  1  0.49999900  0.00000000  0.49999983  1
  Os  Os19  1  0.00000000  0.49999988  0.49999983  1
