# generated using pymatgen
data_NdBiO3
_symmetry_space_group_name_H-M   'P 1'
_cell_length_a   6.22499108
_cell_length_b   8.65764344
_cell_length_c   5.89502895
_cell_angle_alpha   90.00000000
_cell_angle_beta   90.00000000
_cell_angle_gamma   90.00000000
_symmetry_Int_Tables_number   1
_chemical_formula_structural   NdBiO3
_chemical_formula_sum   'Nd4 Bi4 O12'
_cell_volume   317.70523561
_cell_formula_units_Z   4
loop_
 _symmetry_equiv_pos_site_id
 _symmetry_equiv_pos_as_xyz
  1  'x, y, z'
loop_
 _atom_site_type_symbol
 _atom_site_label
 _atom_site_symmetry_multiplicity
 _atom_site_fract_x
 _atom_site_fract_y
 _atom_site_fract_z
 _atom_site_occupancy
  Bi  Bi0  1  0.50000000  0.00000000  0.00000000  1
  Bi  Bi1  1  0.50000000  0.50000000  0.00000000  1
  Bi  Bi2  1  0.00000000  0.00000000  0.50000000  1
  Bi  Bi3  1  0.00000000  0.50000000  0.50000000  1
  Nd  Nd4  1  0.05961089  0.25000000  0.02074413  1
  Nd  Nd5  1  0.55961089  0.25000000  0.47925587  1
  Nd  Nd6  1  0.44038911  0.75000000  0.52074413  1
  Nd  Nd7  1  0.94038911  0.75000000  0.97925587  1
  O  O8  1  0.58722949  0.75000000  0.16097414  1
  O  O9  1  0.81383543  0.08086496  0.18033622  1
  O  O10  1  0.81383543  0.41913504  0.18033622  1
  O  O11  1  0.31383543  0.08086496  0.31966378  1
  O  O12  1  0.31383543  0.41913504  0.31966378  1
  O  O13  1  0.08722949  0.75000000  0.33902586  1
  O  O14  1  0.91277051  0.25000000  0.66097414  1
  O  O15  1  0.68616457  0.58086496  0.68033622  1
  O  O16  1  0.68616457  0.91913504  0.68033622  1
  O  O17  1  0.18616457  0.58086496  0.81966378  1
  O  O18  1  0.18616457  0.91913504  0.81966378  1
  O  O19  1  0.41277051  0.25000000  0.83902586  1
