# generated using pymatgen
data_MnVO3
_symmetry_space_group_name_H-M   'P 1'
_cell_length_a   5.18029700
_cell_length_b   5.31413500
_cell_length_c   7.60519900
_cell_angle_alpha   90.00000000
_cell_angle_beta   90.00000000
_cell_angle_gamma   90.00000000
_symmetry_Int_Tables_number   1
_chemical_formula_structural   MnVO3
_chemical_formula_sum   'Mn4 V4 O12'
_cell_volume   209.36198396
_cell_formula_units_Z   4
loop_
 _symmetry_equiv_pos_site_id
 _symmetry_equiv_pos_as_xyz
  1  'x, y, z'
loop_
 _atom_site_type_symbol
 _atom_site_label
 _atom_site_symmetry_multiplicity
 _atom_site_fract_x
 _atom_site_fract_y
 _atom_site_fract_z
 _atom_site_occupancy
  Mn  Mn0  1  0.01178500  0.55281900  0.25000000  1
  Mn  Mn1  1  0.48821500  0.05281900  0.25000000  1
  Mn  Mn2  1  0.98821500  0.44718100  0.75000000  1
  Mn  Mn3  1  0.51178500  0.94718100  0.75000000  1
  V  V4  1  0.50000000  0.50000000  0.00000000  1
  V  V5  1  0.00000000  0.00000000  0.50000000  1
  V  V6  1  0.50000000  0.50000000  0.50000000  1
  V  V7  1  0.00000000  0.00000000  0.00000000  1
  O  O8  1  0.88550500  0.95524100  0.25000000  1
  O  O9  1  0.61449500  0.45524100  0.25000000  1
  O  O10  1  0.11449500  0.04475900  0.75000000  1
  O  O11  1  0.38550500  0.54475900  0.75000000  1
  O  O12  1  0.31694900  0.79674900  0.05956500  1
  O  O13  1  0.18305100  0.29674900  0.44043500  1
  O  O14  1  0.68305100  0.20325100  0.55956500  1
  O  O15  1  0.81694900  0.70325100  0.94043500  1
  O  O16  1  0.68305100  0.20325100  0.94043500  1
  O  O17  1  0.81694900  0.70325100  0.55956500  1
  O  O18  1  0.31694900  0.79674900  0.44043500  1
  O  O19  1  0.18305100  0.29674900  0.05956500  1
