# generated using pymatgen
data_YbAuO3
_symmetry_space_group_name_H-M   'P 1'
_cell_length_a   5.46018679
_cell_length_b   5.89759799
_cell_length_c   7.51273977
_cell_angle_alpha   90.00000000
_cell_angle_beta   90.00000000
_cell_angle_gamma   90.00000000
_symmetry_Int_Tables_number   1
_chemical_formula_structural   YbAuO3
_chemical_formula_sum   'Yb4 Au4 O12'
_cell_volume   241.92514596
_cell_formula_units_Z   4
loop_
 _symmetry_equiv_pos_site_id
 _symmetry_equiv_pos_as_xyz
  1  'x, y, z'
loop_
 _atom_site_type_symbol
 _atom_site_label
 _atom_site_symmetry_multiplicity
 _atom_site_fract_x
 _atom_site_fract_y
 _atom_site_fract_z
 _atom_site_occupancy
  Au  Au0  1  0.50000121  0.00000000  0.00000000  1
  Au  Au1  1  0.00000000  0.50000017  0.00000000  1
  Au  Au2  1  0.50000121  0.00000000  0.50000002  1
  Au  Au3  1  0.00000000  0.50000017  0.50000002  1
  O  O4  1  0.68589778  0.30548369  0.06029758  1
  O  O5  1  0.81410402  0.80548217  0.06029758  1
  O  O6  1  0.13682865  0.44120335  0.24999934  1
  O  O7  1  0.36317073  0.94120352  0.24999934  1
  O  O8  1  0.68589778  0.30548369  0.43970244  1
  O  O9  1  0.81410402  0.80548217  0.43970244  1
  O  O10  1  0.18589657  0.19451648  0.56029759  1
  O  O11  1  0.31410281  0.69451665  0.56029759  1
  O  O12  1  0.63682986  0.05879851  0.74999936  1
  O  O13  1  0.86317194  0.55879868  0.74999936  1
  O  O14  1  0.18589657  0.19451648  0.93970245  1
  O  O15  1  0.31410281  0.69451665  0.93970245  1
  Yb  Yb16  1  0.97223231  0.07912035  0.24999934  1
  Yb  Yb17  1  0.52776766  0.57912052  0.24999934  1
  Yb  Yb18  1  0.47223293  0.42087982  0.74999936  1
  Yb  Yb19  1  0.02776645  0.92087999  0.74999936  1
