# generated using pymatgen
data_YbCuO3
_symmetry_space_group_name_H-M   'P 1'
_cell_length_a   5.17795010
_cell_length_b   5.30183021
_cell_length_c   7.36787732
_cell_angle_alpha   90.00000000
_cell_angle_beta   90.00000000
_cell_angle_gamma   90.00000000
_symmetry_Int_Tables_number   1
_chemical_formula_structural   YbCuO3
_chemical_formula_sum   'Yb4 Cu4 O12'
_cell_volume   202.26747926
_cell_formula_units_Z   4
loop_
 _symmetry_equiv_pos_site_id
 _symmetry_equiv_pos_as_xyz
  1  'x, y, z'
loop_
 _atom_site_type_symbol
 _atom_site_label
 _atom_site_symmetry_multiplicity
 _atom_site_fract_x
 _atom_site_fract_y
 _atom_site_fract_z
 _atom_site_occupancy
  Cu  Cu0  1  0.49999902  0.00000000  0.00000000  1
  Cu  Cu1  1  0.00000000  0.49999904  0.00000000  1
  Cu  Cu2  1  0.49999902  0.00000000  0.50000018  1
  Cu  Cu3  1  0.00000000  0.49999904  0.50000018  1
  O  O4  1  0.70365105  0.29338171  0.03958942  1
  O  O5  1  0.79634796  0.79338452  0.03958942  1
  O  O6  1  0.07743991  0.48986669  0.25000009  1
  O  O7  1  0.42255911  0.98986761  0.25000009  1
  O  O8  1  0.70365105  0.29338171  0.46041076  1
  O  O9  1  0.79634796  0.79338452  0.46041076  1
  O  O10  1  0.20365009  0.20661733  0.53958825  1
  O  O11  1  0.29634894  0.70661825  0.53958825  1
  O  O12  1  0.57743894  0.01013424  0.75000027  1
  O  O13  1  0.92256200  0.51013327  0.75000027  1
  O  O14  1  0.20365009  0.20661733  0.96041094  1
  O  O15  1  0.29634894  0.70661825  0.96041094  1
  Yb  Yb16  1  0.98542085  0.05772724  0.25000009  1
  Yb  Yb17  1  0.51457815  0.55772627  0.25000009  1
  Yb  Yb18  1  0.48542183  0.44227557  0.75000027  1
  Yb  Yb19  1  0.01457913  0.94227461  0.75000027  1
