# generated using pymatgen
data_ZnCoO3
_symmetry_space_group_name_H-M   'P 1'
_cell_length_a   4.97813300
_cell_length_b   5.03293800
_cell_length_c   7.28657200
_cell_angle_alpha   90.00000000
_cell_angle_beta   90.00000000
_cell_angle_gamma   90.00000000
_symmetry_Int_Tables_number   1
_chemical_formula_structural   ZnCoO3
_chemical_formula_sum   'Zn4 Co4 O12'
_cell_volume   182.56240000
_cell_formula_units_Z   4
loop_
 _symmetry_equiv_pos_site_id
 _symmetry_equiv_pos_as_xyz
  1  'x, y, z'
loop_
 _atom_site_type_symbol
 _atom_site_label
 _atom_site_symmetry_multiplicity
 _atom_site_fract_x
 _atom_site_fract_y
 _atom_site_fract_z
 _atom_site_occupancy
  Zn  Zn0  1  0.99373400  0.55116600  0.75000000  1
  Zn  Zn1  1  0.49373400  0.94883400  0.25000000  1
  Zn  Zn2  1  0.50626600  0.05116600  0.75000000  1
  Zn  Zn3  1  0.00626600  0.44883400  0.25000000  1
  Co  Co4  1  0.50000000  0.50000000  0.50000000  1
  Co  Co5  1  0.00000000  0.00000000  0.50000000  1
  Co  Co6  1  0.00000000  0.00000000  0.00000000  1
  Co  Co7  1  0.50000000  0.50000000  0.00000000  1
  O  O8  1  0.88126400  0.05730000  0.25000000  1
  O  O9  1  0.38126400  0.44270000  0.75000000  1
  O  O10  1  0.61873600  0.55730000  0.25000000  1
  O  O11  1  0.11873600  0.94270000  0.75000000  1
  O  O12  1  0.68670600  0.81193400  0.93610800  1
  O  O13  1  0.18670600  0.68806600  0.06389200  1
  O  O14  1  0.81329400  0.31193400  0.56389200  1
  O  O15  1  0.31329400  0.18806600  0.43610800  1
  O  O16  1  0.68670600  0.81193400  0.56389200  1
  O  O17  1  0.18670600  0.68806600  0.43610800  1
  O  O18  1  0.31329400  0.18806600  0.06389200  1
  O  O19  1  0.81329400  0.31193400  0.93610800  1
