# generated using pymatgen
data_UTiO3
_symmetry_space_group_name_H-M   'P 1'
_cell_length_a   5.46319938
_cell_length_b   5.69163126
_cell_length_c   7.88761802
_cell_angle_alpha   90.00000000
_cell_angle_beta   90.00000000
_cell_angle_gamma   90.00000000
_symmetry_Int_Tables_number   1
_chemical_formula_structural   UTiO3
_chemical_formula_sum   'U4 Ti4 O12'
_cell_volume   245.26166787
_cell_formula_units_Z   4
loop_
 _symmetry_equiv_pos_site_id
 _symmetry_equiv_pos_as_xyz
  1  'x, y, z'
loop_
 _atom_site_type_symbol
 _atom_site_label
 _atom_site_symmetry_multiplicity
 _atom_site_fract_x
 _atom_site_fract_y
 _atom_site_fract_z
 _atom_site_occupancy
  O  O0  1  0.69765164  0.29885632  0.03928182  1
  O  O1  1  0.80234853  0.79885358  0.03928182  1
  O  O2  1  0.07656503  0.48462908  0.25000070  1
  O  O3  1  0.42343503  0.98462984  0.25000070  1
  O  O4  1  0.69765164  0.29885632  0.46071704  1
  O  O5  1  0.80234853  0.79885358  0.46071704  1
  O  O6  1  0.19765158  0.20114444  0.53928195  1
  O  O7  1  0.30234847  0.70114521  0.53928195  1
  O  O8  1  0.57656508  0.01537169  0.75000082  1
  O  O9  1  0.92343509  0.51537070  0.75000082  1
  O  O10  1  0.19765158  0.20114444  0.96071716  1
  O  O11  1  0.30234847  0.70114521  0.96071716  1
  Ti  Ti12  1  0.50000006  0.00000000  0.00000000  1
  Ti  Ti13  1  0.00000000  0.50000077  0.00000000  1
  Ti  Ti14  1  0.50000006  0.00000000  0.50000013  1
  Ti  Ti15  1  0.00000000  0.50000077  0.50000013  1
  U  U16  1  0.98856725  0.05684662  0.25000070  1
  U  U17  1  0.51143292  0.55684739  0.25000070  1
  U  U18  1  0.48856720  0.44315415  0.75000082  1
  U  U19  1  0.01143286  0.94315316  0.75000082  1
