# generated using pymatgen
data_KGeBr3
_symmetry_space_group_name_H-M   'P 1'
_cell_length_a   5.60540902
_cell_length_b   5.60540902
_cell_length_c   5.59204652
_cell_angle_alpha   89.03163450
_cell_angle_beta   89.03163450
_cell_angle_gamma   89.23977012
_symmetry_Int_Tables_number   1
_chemical_formula_structural   KGeBr3
_chemical_formula_sum   'K1 Ge1 Br3'
_cell_volume   175.64051665
_cell_formula_units_Z   1
loop_
 _symmetry_equiv_pos_site_id
 _symmetry_equiv_pos_as_xyz
  1  'x, y, z'
loop_
 _atom_site_type_symbol
 _atom_site_label
 _atom_site_symmetry_multiplicity
 _atom_site_fract_x
 _atom_site_fract_y
 _atom_site_fract_z
 _atom_site_occupancy
  K  K0  1  0.00184700  0.00184700  0.00059500  1
  Ge  Ge1  1  0.52162200  0.52162200  0.53342300  1
  Br  Br2  1  0.98544000  0.50185500  0.51364300  1
  Br  Br3  1  0.49428600  0.49428600  0.00078700  1
  Br  Br4  1  0.50185500  0.98544000  0.51364300  1
