# generated using pymatgen
data_ScBiO3
_symmetry_space_group_name_H-M   'P 1'
_cell_length_a   5.60061700
_cell_length_b   5.90965100
_cell_length_c   8.10409300
_cell_angle_alpha   90.00000000
_cell_angle_beta   90.00000000
_cell_angle_gamma   90.00000000
_symmetry_Int_Tables_number   1
_chemical_formula_structural   ScBiO3
_chemical_formula_sum   'Sc4 Bi4 O12'
_cell_volume   268.22677288
_cell_formula_units_Z   4
loop_
 _symmetry_equiv_pos_site_id
 _symmetry_equiv_pos_as_xyz
  1  'x, y, z'
loop_
 _atom_site_type_symbol
 _atom_site_label
 _atom_site_symmetry_multiplicity
 _atom_site_fract_x
 _atom_site_fract_y
 _atom_site_fract_z
 _atom_site_occupancy
  Sc  Sc0  1  0.00000000  0.50000000  0.00000000  1
  Sc  Sc1  1  0.00000000  0.50000000  0.50000000  1
  Sc  Sc2  1  0.50000000  0.00000000  0.00000000  1
  Sc  Sc3  1  0.50000000  0.00000000  0.50000000  1
  Bi  Bi4  1  0.01056700  0.04560500  0.25000000  1
  Bi  Bi5  1  0.48943300  0.54560500  0.25000000  1
  Bi  Bi6  1  0.51056700  0.45439500  0.75000000  1
  Bi  Bi7  1  0.98943300  0.95439500  0.75000000  1
  O  O8  1  0.11534800  0.53708900  0.75000000  1
  O  O9  1  0.18647500  0.80692900  0.05771600  1
  O  O10  1  0.18647500  0.80692900  0.44228400  1
  O  O11  1  0.31352500  0.30692900  0.05771600  1
  O  O12  1  0.31352500  0.30692900  0.44228400  1
  O  O13  1  0.38465200  0.03708900  0.75000000  1
  O  O14  1  0.61534800  0.96291100  0.25000000  1
  O  O15  1  0.68647500  0.69307100  0.55771600  1
  O  O16  1  0.68647500  0.69307100  0.94228400  1
  O  O17  1  0.81352500  0.19307100  0.55771600  1
  O  O18  1  0.81352500  0.19307100  0.94228400  1
  O  O19  1  0.88465200  0.46291100  0.25000000  1
