# generated using pymatgen
data_CeTiO3
_symmetry_space_group_name_H-M   'P 1'
_cell_length_a   5.53388327
_cell_length_b   5.65990997
_cell_length_c   7.88401626
_cell_angle_alpha   90.00000000
_cell_angle_beta   90.00000000
_cell_angle_gamma   90.00000000
_symmetry_Int_Tables_number   1
_chemical_formula_structural   CeTiO3
_chemical_formula_sum   'Ce4 Ti4 O12'
_cell_volume   246.93748907
_cell_formula_units_Z   4
loop_
 _symmetry_equiv_pos_site_id
 _symmetry_equiv_pos_as_xyz
  1  'x, y, z'
loop_
 _atom_site_type_symbol
 _atom_site_label
 _atom_site_symmetry_multiplicity
 _atom_site_fract_x
 _atom_site_fract_y
 _atom_site_fract_z
 _atom_site_occupancy
  Ce  Ce0  1  0.99168156  0.04759086  0.24999948  1
  Ce  Ce1  1  0.50831936  0.54759175  0.24999948  1
  Ce  Ce2  1  0.49168186  0.45241002  0.75000099  1
  Ce  Ce3  1  0.00831966  0.95240914  0.75000099  1
  O  O4  1  0.70810312  0.28982970  0.03942407  1
  O  O5  1  0.79189600  0.78982705  0.03942407  1
  O  O6  1  0.07408722  0.48468615  0.24999948  1
  O  O7  1  0.42591430  0.98468527  0.24999948  1
  O  O8  1  0.70810312  0.28982970  0.46057744  1
  O  O9  1  0.79189600  0.78982705  0.46057744  1
  O  O10  1  0.20810341  0.21017119  0.53942304  1
  O  O11  1  0.29189629  0.71017207  0.53942304  1
  O  O12  1  0.57408692  0.01531473  0.75000099  1
  O  O13  1  0.92591400  0.51531562  0.75000099  1
  O  O14  1  0.20810341  0.21017119  0.96057641  1
  O  O15  1  0.29189629  0.71017207  0.96057641  1
  Ti  Ti16  1  0.49999970  0.00000000  0.00000000  1
  Ti  Ti17  1  0.00000000  0.50000089  0.00000000  1
  Ti  Ti18  1  0.49999970  0.00000000  0.49999897  1
  Ti  Ti19  1  0.00000000  0.50000089  0.49999897  1
