# generated using pymatgen
data_Cd3SbN
_symmetry_space_group_name_H-M   'P 1'
_cell_length_a   6.73184600
_cell_length_b   6.63441700
_cell_length_c   9.39714600
_cell_angle_alpha   90.00000000
_cell_angle_beta   90.00000000
_cell_angle_gamma   90.00000000
_symmetry_Int_Tables_number   1
_chemical_formula_structural   Cd3SbN
_chemical_formula_sum   'Cd12 Sb4 N4'
_cell_volume   419.69414632
_cell_formula_units_Z   4
loop_
 _symmetry_equiv_pos_site_id
 _symmetry_equiv_pos_as_xyz
  1  'x, y, z'
loop_
 _atom_site_type_symbol
 _atom_site_label
 _atom_site_symmetry_multiplicity
 _atom_site_fract_x
 _atom_site_fract_y
 _atom_site_fract_z
 _atom_site_occupancy
  Cd  Cd0  1  0.77197500  0.77030300  0.04216300  1
  Cd  Cd1  1  0.72802500  0.27030300  0.45783700  1
  Cd  Cd2  1  0.22802500  0.22969700  0.54216300  1
  Cd  Cd3  1  0.27197500  0.72969700  0.95783700  1
  Cd  Cd4  1  0.22802500  0.22969700  0.95783700  1
  Cd  Cd5  1  0.27197500  0.72969700  0.54216300  1
  Cd  Cd6  1  0.77197500  0.77030300  0.45783700  1
  Cd  Cd7  1  0.72802500  0.27030300  0.04216300  1
  Cd  Cd8  1  0.42399700  0.98748000  0.25000000  1
  Cd  Cd9  1  0.07600300  0.48748000  0.25000000  1
  Cd  Cd10  1  0.57600300  0.01252000  0.75000000  1
  Cd  Cd11  1  0.92399700  0.51252000  0.75000000  1
  Sb  Sb12  1  0.50742100  0.52407400  0.25000000  1
  Sb  Sb13  1  0.99257900  0.02407400  0.25000000  1
  Sb  Sb14  1  0.49257900  0.47592600  0.75000000  1
  Sb  Sb15  1  0.00742100  0.97592600  0.75000000  1
  N  N16  1  0.00000000  0.50000000  0.00000000  1
  N  N17  1  0.50000000  0.00000000  0.50000000  1
  N  N18  1  0.00000000  0.50000000  0.50000000  1
  N  N19  1  0.50000000  0.00000000  0.00000000  1
