# generated using pymatgen
data_YMnO3
_symmetry_space_group_name_H-M   'P 1'
_cell_length_a   5.33623100
_cell_length_b   5.88945500
_cell_length_c   7.49551000
_cell_angle_alpha   90.00000000
_cell_angle_beta   90.00000000
_cell_angle_gamma   90.00000000
_symmetry_Int_Tables_number   1
_chemical_formula_structural   YMnO3
_chemical_formula_sum   'Y4 Mn4 O12'
_cell_volume   235.56508314
_cell_formula_units_Z   4
loop_
 _symmetry_equiv_pos_site_id
 _symmetry_equiv_pos_as_xyz
  1  'x, y, z'
loop_
 _atom_site_type_symbol
 _atom_site_label
 _atom_site_symmetry_multiplicity
 _atom_site_fract_x
 _atom_site_fract_y
 _atom_site_fract_z
 _atom_site_occupancy
  Y  Y0  1  0.51815600  0.58293100  0.25000000  1
  Y  Y1  1  0.98184400  0.08293100  0.25000000  1
  Y  Y2  1  0.48184400  0.41706900  0.75000000  1
  Y  Y3  1  0.01815600  0.91706900  0.75000000  1
  Mn  Mn4  1  0.00000000  0.50000000  0.00000000  1
  Mn  Mn5  1  0.50000000  0.00000000  0.50000000  1
  Mn  Mn6  1  0.00000000  0.50000000  0.50000000  1
  Mn  Mn7  1  0.50000000  0.00000000  0.00000000  1
  O  O8  1  0.38313500  0.95837000  0.25000000  1
  O  O9  1  0.11686500  0.45837000  0.25000000  1
  O  O10  1  0.61686500  0.04163000  0.75000000  1
  O  O11  1  0.88313500  0.54163000  0.75000000  1
  O  O12  1  0.80008200  0.82716700  0.05566600  1
  O  O13  1  0.69991800  0.32716700  0.44433400  1
  O  O14  1  0.19991800  0.17283300  0.55566600  1
  O  O15  1  0.30008200  0.67283300  0.94433400  1
  O  O16  1  0.19991800  0.17283300  0.94433400  1
  O  O17  1  0.30008200  0.67283300  0.55566600  1
  O  O18  1  0.80008200  0.82716700  0.44433400  1
  O  O19  1  0.69991800  0.32716700  0.05566600  1
