# generated using pymatgen
data_RbPbCl3
_symmetry_space_group_name_H-M   'P 1'
_cell_length_a   5.71715466
_cell_length_b   5.71715466
_cell_length_c   5.71394563
_cell_angle_alpha   89.90838683
_cell_angle_beta   89.90838683
_cell_angle_gamma   90.07350049
_symmetry_Int_Tables_number   1
_chemical_formula_structural   RbPbCl3
_chemical_formula_sum   'Rb1 Pb1 Cl3'
_cell_volume   186.76458044
_cell_formula_units_Z   1
loop_
 _symmetry_equiv_pos_site_id
 _symmetry_equiv_pos_as_xyz
  1  'x, y, z'
loop_
 _atom_site_type_symbol
 _atom_site_label
 _atom_site_symmetry_multiplicity
 _atom_site_fract_x
 _atom_site_fract_y
 _atom_site_fract_z
 _atom_site_occupancy
  Rb  Rb0  1  0.00521400  0.00521400  0.99887300  1
  Pb  Pb1  1  0.50410700  0.50410700  0.48573300  1
  Cl  Cl2  1  0.50560700  0.00380100  0.48346900  1
  Cl  Cl3  1  0.49209300  0.49209300  0.98484200  1
  Cl  Cl4  1  0.00380100  0.50560700  0.48346900  1
