# generated using pymatgen
data_MgBiO3
_symmetry_space_group_name_H-M   'P 1'
_cell_length_a   5.34802769
_cell_length_b   5.66980381
_cell_length_c   7.81137463
_cell_angle_alpha   90.00000000
_cell_angle_beta   90.00000000
_cell_angle_gamma   90.00000000
_symmetry_Int_Tables_number   1
_chemical_formula_structural   MgBiO3
_chemical_formula_sum   'Mg4 Bi4 O12'
_cell_volume   236.85859309
_cell_formula_units_Z   4
loop_
 _symmetry_equiv_pos_site_id
 _symmetry_equiv_pos_as_xyz
  1  'x, y, z'
loop_
 _atom_site_type_symbol
 _atom_site_label
 _atom_site_symmetry_multiplicity
 _atom_site_fract_x
 _atom_site_fract_y
 _atom_site_fract_z
 _atom_site_occupancy
  Bi  Bi0  1  0.97963591  0.05898970  0.24999953  1
  Bi  Bi1  1  0.52036380  0.55898760  0.24999953  1
  Bi  Bi2  1  0.47963663  0.44101173  0.74999988  1
  Bi  Bi3  1  0.02036265  0.94101140  0.74999988  1
  Mg  Mg4  1  0.50000115  0.00000000  0.00000000  1
  Mg  Mg5  1  0.00000000  0.50000143  0.00000000  1
  Mg  Mg6  1  0.50000115  0.00000000  0.50000034  1
  Mg  Mg7  1  0.00000000  0.50000143  0.50000034  1
  O  O8  1  0.68432892  0.31155223  0.06490151  1
  O  O9  1  0.81567266  0.81155365  0.06490151  1
  O  O10  1  0.13527604  0.43734847  0.24999953  1
  O  O11  1  0.36472137  0.93734989  0.24999953  1
  O  O12  1  0.68432892  0.31155223  0.43509884  1
  O  O13  1  0.81567266  0.81155365  0.43509884  1
  O  O14  1  0.18432964  0.18844567  0.56490057  1
  O  O15  1  0.31567151  0.68844710  0.56490057  1
  O  O16  1  0.63527719  0.06264943  0.74999988  1
  O  O17  1  0.86472252  0.56265086  0.74999988  1
  O  O18  1  0.18432964  0.18844567  0.93509918  1
  O  O19  1  0.31567151  0.68844710  0.93509918  1
