# generated using pymatgen
data_CaIrO3
_symmetry_space_group_name_H-M   'P 1'
_cell_length_a   5.35601600
_cell_length_b   5.69150000
_cell_length_c   7.73688100
_cell_angle_alpha   90.00000000
_cell_angle_beta   90.00000000
_cell_angle_gamma   90.00000000
_symmetry_Int_Tables_number   1
_chemical_formula_structural   CaIrO3
_chemical_formula_sum   'Ca4 Ir4 O12'
_cell_volume   235.84926273
_cell_formula_units_Z   4
loop_
 _symmetry_equiv_pos_site_id
 _symmetry_equiv_pos_as_xyz
  1  'x, y, z'
loop_
 _atom_site_type_symbol
 _atom_site_label
 _atom_site_symmetry_multiplicity
 _atom_site_fract_x
 _atom_site_fract_y
 _atom_site_fract_z
 _atom_site_occupancy
  Ca  Ca0  1  0.51978600  0.06558500  0.25000000  1
  Ca  Ca1  1  0.48021400  0.93441500  0.75000000  1
  Ca  Ca2  1  0.98021400  0.56558500  0.25000000  1
  Ca  Ca3  1  0.01978600  0.43441500  0.75000000  1
  Ir  Ir4  1  0.00000000  0.00000000  0.50000000  1
  Ir  Ir5  1  0.00000000  0.00000000  0.00000000  1
  Ir  Ir6  1  0.50000000  0.50000000  0.50000000  1
  Ir  Ir7  1  0.50000000  0.50000000  0.00000000  1
  O  O8  1  0.31143100  0.19537400  0.94636100  1
  O  O9  1  0.60922900  0.54274900  0.75000000  1
  O  O10  1  0.39077100  0.45725100  0.25000000  1
  O  O11  1  0.81143100  0.30462600  0.44636100  1
  O  O12  1  0.81143100  0.30462600  0.05363900  1
  O  O13  1  0.68856900  0.80462600  0.05363900  1
  O  O14  1  0.18856900  0.69537400  0.55363900  1
  O  O15  1  0.10922900  0.95725100  0.25000000  1
  O  O16  1  0.68856900  0.80462600  0.44636100  1
  O  O17  1  0.18856900  0.69537400  0.94636100  1
  O  O18  1  0.31143100  0.19537400  0.55363900  1
  O  O19  1  0.89077100  0.04274900  0.75000000  1
