# generated using pymatgen
data_EuLuO3
_symmetry_space_group_name_H-M   'P 1'
_cell_length_a   5.73944155
_cell_length_b   5.95224652
_cell_length_c   8.16235195
_cell_angle_alpha   90.00000000
_cell_angle_beta   90.00000000
_cell_angle_gamma   90.00000000
_symmetry_Int_Tables_number   1
_chemical_formula_structural   EuLuO3
_chemical_formula_sum   'Eu4 Lu4 O12'
_cell_volume   278.84692780
_cell_formula_units_Z   4
loop_
 _symmetry_equiv_pos_site_id
 _symmetry_equiv_pos_as_xyz
  1  'x, y, z'
loop_
 _atom_site_type_symbol
 _atom_site_label
 _atom_site_symmetry_multiplicity
 _atom_site_fract_x
 _atom_site_fract_y
 _atom_site_fract_z
 _atom_site_occupancy
  Eu  Eu0  1  0.97871891  0.05683736  0.25000025  1
  Eu  Eu1  1  0.52128242  0.55683682  0.25000025  1
  Eu  Eu2  1  0.47871905  0.44316209  0.75000074  1
  Eu  Eu3  1  0.02128256  0.94316322  0.75000074  1
  Lu  Lu4  1  0.49999987  0.00000000  0.00000000  1
  Lu  Lu5  1  0.00000000  0.49999945  0.00000000  1
  Lu  Lu6  1  0.49999987  0.00000000  0.49999927  1
  Lu  Lu7  1  0.00000000  0.49999945  0.49999927  1
  O  O8  1  0.70078595  0.29583116  0.06358706  1
  O  O9  1  0.79921365  0.79583061  0.06358706  1
  O  O10  1  0.11863524  0.44971088  0.25000025  1
  O  O11  1  0.38136637  0.94971033  0.25000025  1
  O  O12  1  0.70078595  0.29583116  0.43641343  1
  O  O13  1  0.79921365  0.79583061  0.43641343  1
  O  O14  1  0.20078609  0.20416829  0.56358756  1
  O  O15  1  0.29921378  0.70416774  0.56358756  1
  O  O16  1  0.61863510  0.05029026  0.75000074  1
  O  O17  1  0.88136624  0.55028971  0.75000074  1
  O  O18  1  0.20078609  0.20416829  0.93641270  1
  O  O19  1  0.29921378  0.70416774  0.93641270  1
