# generated using pymatgen
data_PrTlO3
_symmetry_space_group_name_H-M   'P 1'
_cell_length_a   5.77447105
_cell_length_b   6.14909169
_cell_length_c   8.43301746
_cell_angle_alpha   90.00000000
_cell_angle_beta   90.00000000
_cell_angle_gamma   90.00000000
_symmetry_Int_Tables_number   1
_chemical_formula_structural   PrTlO3
_chemical_formula_sum   'Pr4 Tl4 O12'
_cell_volume   299.43749204
_cell_formula_units_Z   4
loop_
 _symmetry_equiv_pos_site_id
 _symmetry_equiv_pos_as_xyz
  1  'x, y, z'
loop_
 _atom_site_type_symbol
 _atom_site_label
 _atom_site_symmetry_multiplicity
 _atom_site_fract_x
 _atom_site_fract_y
 _atom_site_fract_z
 _atom_site_occupancy
  O  O0  1  0.68792968  0.31262178  0.07279126  1
  O  O1  1  0.81207092  0.81262083  0.07279126  1
  O  O2  1  0.14569993  0.43112872  0.24999948  1
  O  O3  1  0.35430085  0.93112939  0.24999948  1
  O  O4  1  0.68792968  0.31262178  0.42720770  1
  O  O5  1  0.81207092  0.81262083  0.42720770  1
  O  O6  1  0.18793063  0.18737889  0.57279141  1
  O  O7  1  0.31207187  0.68737957  0.57279141  1
  O  O8  1  0.64569897  0.06887033  0.74999963  1
  O  O9  1  0.85429989  0.56887101  0.74999963  1
  O  O10  1  0.18793063  0.18737889  0.92720785  1
  O  O11  1  0.31207187  0.68737957  0.92720785  1
  Pr  Pr12  1  0.97768435  0.06870771  0.24999948  1
  Pr  Pr13  1  0.52231451  0.56870838  0.24999948  1
  Pr  Pr14  1  0.47768531  0.43129134  0.74999963  1
  Pr  Pr15  1  0.02231373  0.93129039  0.74999963  1
  Tl  Tl16  1  0.49999904  0.00000000  0.00000000  1
  Tl  Tl17  1  0.00000000  0.49999905  0.00000000  1
  Tl  Tl18  1  0.49999904  0.00000000  0.50000015  1
  Tl  Tl19  1  0.00000000  0.49999905  0.50000015  1
