# generated using pymatgen
data_PuTiO3
_symmetry_space_group_name_H-M   'P 1'
_cell_length_a   5.47515549
_cell_length_b   5.60333104
_cell_length_c   7.78481078
_cell_angle_alpha   90.00000000
_cell_angle_beta   90.00000000
_cell_angle_gamma   89.95291106
_symmetry_Int_Tables_number   1
_chemical_formula_structural   PuTiO3
_chemical_formula_sum   'Pu4 Ti4 O12'
_cell_volume   238.83097601
_cell_formula_units_Z   4
loop_
 _symmetry_equiv_pos_site_id
 _symmetry_equiv_pos_as_xyz
  1  'x, y, z'
loop_
 _atom_site_type_symbol
 _atom_site_label
 _atom_site_symmetry_multiplicity
 _atom_site_fract_x
 _atom_site_fract_y
 _atom_site_fract_z
 _atom_site_occupancy
  O  O0  1  0.79811507  0.79627501  0.04166832  1
  O  O1  1  0.70163443  0.29634168  0.04181605  1
  O  O2  1  0.07810745  0.48309618  0.24999965  1
  O  O3  1  0.42189788  0.98324496  0.24999965  1
  O  O4  1  0.70163443  0.29634168  0.45818455  1
  O  O5  1  0.79811507  0.79627501  0.45833355  1
  O  O6  1  0.20186438  0.20372276  0.54165992  1
  O  O7  1  0.29835963  0.70368107  0.54180765  1
  O  O8  1  0.57808157  0.01675816  0.75000025  1
  O  O9  1  0.92191216  0.51694976  0.75000025  1
  O  O10  1  0.29835963  0.70368107  0.95819285  1
  O  O11  1  0.20186438  0.20372276  0.95834057  1
  Pu  Pu12  1  0.99134793  0.04843455  0.24999965  1
  Pu  Pu13  1  0.50874354  0.54853215  0.24999965  1
  Pu  Pu14  1  0.49125602  0.45145134  0.75000025  1
  Pu  Pu15  1  0.00864978  0.95157571  0.75000025  1
  Ti  Ti16  1  0.50001141  0.00000000  0.00000000  1
  Ti  Ti17  1  0.00000000  0.49997943  0.00000000  1
  Ti  Ti18  1  0.50001141  0.00000000  0.49999931  1
  Ti  Ti19  1  0.00000000  0.49997943  0.49999931  1
