# generated using pymatgen
data_CsCaI3
_symmetry_space_group_name_H-M   'P 1'
_cell_length_a   6.23463262
_cell_length_b   6.23463262
_cell_length_c   6.23149910
_cell_angle_alpha   89.99261412
_cell_angle_beta   89.99261412
_cell_angle_gamma   89.99760864
_symmetry_Int_Tables_number   1
_chemical_formula_structural   CsCaI3
_chemical_formula_sum   'Cs1 Ca1 I3'
_cell_volume   242.22237811
_cell_formula_units_Z   1
loop_
 _symmetry_equiv_pos_site_id
 _symmetry_equiv_pos_as_xyz
  1  'x, y, z'
loop_
 _atom_site_type_symbol
 _atom_site_label
 _atom_site_symmetry_multiplicity
 _atom_site_fract_x
 _atom_site_fract_y
 _atom_site_fract_z
 _atom_site_occupancy
  Cs  Cs0  1  0.00017100  0.00017100  0.99798000  1
  Ca  Ca1  1  0.50520200  0.50520200  0.48257500  1
  I  I2  1  0.50379900  0.00110900  0.48683200  1
  I  I3  1  0.49263600  0.49263600  0.98367000  1
  I  I4  1  0.00110900  0.50379900  0.48683200  1
