# generated using pymatgen
data_CsCaI3
_symmetry_space_group_name_H-M   'P 1'
_cell_length_a   8.60430000
_cell_length_b   8.94568500
_cell_length_c   12.32157700
_cell_angle_alpha   90.00000000
_cell_angle_beta   90.00000000
_cell_angle_gamma   90.00000000
_symmetry_Int_Tables_number   1
_chemical_formula_structural   CsCaI3
_chemical_formula_sum   'Cs4 Ca4 I12'
_cell_volume   948.40850756
_cell_formula_units_Z   4
loop_
 _symmetry_equiv_pos_site_id
 _symmetry_equiv_pos_as_xyz
  1  'x, y, z'
loop_
 _atom_site_type_symbol
 _atom_site_label
 _atom_site_symmetry_multiplicity
 _atom_site_fract_x
 _atom_site_fract_y
 _atom_site_fract_z
 _atom_site_occupancy
  Cs  Cs0  1  0.02237700  0.43472700  0.25000000  1
  Cs  Cs1  1  0.97762300  0.56527300  0.75000000  1
  Cs  Cs2  1  0.52237700  0.06527300  0.75000000  1
  Cs  Cs3  1  0.47762300  0.93472700  0.25000000  1
  Ca  Ca4  1  0.00000000  0.00000000  0.00000000  1
  Ca  Ca5  1  0.50000000  0.50000000  0.00000000  1
  Ca  Ca6  1  0.00000000  0.00000000  0.50000000  1
  Ca  Ca7  1  0.50000000  0.50000000  0.50000000  1
  I  I8  1  0.29366000  0.20962600  0.03803800  1
  I  I9  1  0.70634000  0.79037400  0.96196200  1
  I  I10  1  0.79366000  0.29037400  0.96196200  1
  I  I11  1  0.70634000  0.79037400  0.53803800  1
  I  I12  1  0.20634000  0.70962600  0.03803800  1
  I  I13  1  0.29366000  0.20962600  0.46196200  1
  I  I14  1  0.20634000  0.70962600  0.46196200  1
  I  I15  1  0.79366000  0.29037400  0.53803800  1
  I  I16  1  0.57668100  0.51240600  0.25000000  1
  I  I17  1  0.42331900  0.48759400  0.75000000  1
  I  I18  1  0.07668100  0.98759400  0.75000000  1
  I  I19  1  0.92331900  0.01240600  0.25000000  1
