# generated using pymatgen
data_RbEuCl3
_symmetry_space_group_name_H-M   'P 1'
_cell_length_a   7.87231458
_cell_length_b   10.85768814
_cell_length_c   7.55729749
_cell_angle_alpha   90.00000000
_cell_angle_beta   90.00000000
_cell_angle_gamma   90.00000000
_symmetry_Int_Tables_number   1
_chemical_formula_structural   RbEuCl3
_chemical_formula_sum   'Rb4 Eu4 Cl12'
_cell_volume   645.96103633
_cell_formula_units_Z   4
loop_
 _symmetry_equiv_pos_site_id
 _symmetry_equiv_pos_as_xyz
  1  'x, y, z'
loop_
 _atom_site_type_symbol
 _atom_site_label
 _atom_site_symmetry_multiplicity
 _atom_site_fract_x
 _atom_site_fract_y
 _atom_site_fract_z
 _atom_site_occupancy
  Cl  Cl0  1  0.02557680  0.25000000  0.09140296  1
  Cl  Cl1  1  0.29363647  0.54701240  0.20316646  1
  Cl  Cl2  1  0.29363647  0.95298760  0.20316646  1
  Cl  Cl3  1  0.79363647  0.54701240  0.29683354  1
  Cl  Cl4  1  0.79363647  0.95298760  0.29683354  1
  Cl  Cl5  1  0.52557680  0.25000000  0.40859704  1
  Cl  Cl6  1  0.47442320  0.75000000  0.59140296  1
  Cl  Cl7  1  0.20636353  0.04701240  0.70316646  1
  Cl  Cl8  1  0.20636353  0.45298760  0.70316646  1
  Cl  Cl9  1  0.70636353  0.04701240  0.79683354  1
  Cl  Cl10  1  0.70636353  0.45298760  0.79683354  1
  Cl  Cl11  1  0.97442320  0.75000000  0.90859704  1
  Eu  Eu12  1  0.00000000  0.00000000  0.00000000  1
  Eu  Eu13  1  0.00000000  0.50000000  0.00000000  1
  Eu  Eu14  1  0.50000000  0.00000000  0.50000000  1
  Eu  Eu15  1  0.50000000  0.50000000  0.50000000  1
  Rb  Rb16  1  0.56190065  0.75000000  0.02124958  1
  Rb  Rb17  1  0.06190065  0.75000000  0.47875042  1
  Rb  Rb18  1  0.93809935  0.25000000  0.52124958  1
  Rb  Rb19  1  0.43809935  0.25000000  0.97875042  1
