# generated using pymatgen
data_YErO3
_symmetry_space_group_name_H-M   'P 1'
_cell_length_a   5.68258100
_cell_length_b   5.94374900
_cell_length_c   8.37517000
_cell_angle_alpha   90.00000000
_cell_angle_beta   90.00000000
_cell_angle_gamma   90.00000000
_symmetry_Int_Tables_number   1
_chemical_formula_structural   YErO3
_chemical_formula_sum   'Y4 Er4 O12'
_cell_volume   282.87836116
_cell_formula_units_Z   4
loop_
 _symmetry_equiv_pos_site_id
 _symmetry_equiv_pos_as_xyz
  1  'x, y, z'
loop_
 _atom_site_type_symbol
 _atom_site_label
 _atom_site_symmetry_multiplicity
 _atom_site_fract_x
 _atom_site_fract_y
 _atom_site_fract_z
 _atom_site_occupancy
  Y  Y0  1  0.01383400  0.94778100  0.75000000  1
  Y  Y1  1  0.48616600  0.44778100  0.75000000  1
  Y  Y2  1  0.51383400  0.55221900  0.25000000  1
  Y  Y3  1  0.98616600  0.05221900  0.25000000  1
  Er  Er4  1  0.00000000  0.50000000  0.00000000  1
  Er  Er5  1  0.00000000  0.50000000  0.50000000  1
  Er  Er6  1  0.50000000  0.00000000  0.00000000  1
  Er  Er7  1  0.50000000  0.00000000  0.50000000  1
  O  O8  1  0.14466400  0.42171300  0.25000000  1
  O  O9  1  0.17927100  0.18295600  0.57563000  1
  O  O10  1  0.17927100  0.18295600  0.92437000  1
  O  O11  1  0.32072900  0.68295600  0.92437000  1
  O  O12  1  0.32072900  0.68295600  0.57563000  1
  O  O13  1  0.35533600  0.92171300  0.25000000  1
  O  O14  1  0.64466400  0.07828700  0.75000000  1
  O  O15  1  0.67927100  0.31704400  0.42437000  1
  O  O16  1  0.67927100  0.31704400  0.07563000  1
  O  O17  1  0.82072900  0.81704400  0.07563000  1
  O  O18  1  0.82072900  0.81704400  0.42437000  1
  O  O19  1  0.85533600  0.57828700  0.75000000  1
