# generated using pymatgen
data_SrScO3
_symmetry_space_group_name_H-M   'P 1'
_cell_length_a   5.74276869
_cell_length_b   5.81250255
_cell_length_c   8.14800350
_cell_angle_alpha   90.00000000
_cell_angle_beta   90.00000000
_cell_angle_gamma   90.00000000
_symmetry_Int_Tables_number   1
_chemical_formula_structural   SrScO3
_chemical_formula_sum   'Sr4 Sc4 O12'
_cell_volume   271.97919667
_cell_formula_units_Z   4
loop_
 _symmetry_equiv_pos_site_id
 _symmetry_equiv_pos_as_xyz
  1  'x, y, z'
loop_
 _atom_site_type_symbol
 _atom_site_label
 _atom_site_symmetry_multiplicity
 _atom_site_fract_x
 _atom_site_fract_y
 _atom_site_fract_z
 _atom_site_occupancy
  O  O0  1  0.71449334  0.28352676  0.03533135  1
  O  O1  1  0.78550787  0.78352654  0.03533135  1
  O  O2  1  0.06774084  0.48046259  0.24999989  1
  O  O3  1  0.43226014  0.98046237  0.24999989  1
  O  O4  1  0.71449334  0.28352676  0.46466966  1
  O  O5  1  0.78550787  0.78352654  0.46466966  1
  O  O6  1  0.21449236  0.21647302  0.53532991  1
  O  O7  1  0.28550689  0.71647280  0.53532991  1
  O  O8  1  0.56774009  0.01953892  0.74999968  1
  O  O9  1  0.93225938  0.51953870  0.74999968  1
  O  O10  1  0.21449236  0.21647302  0.96466944  1
  O  O11  1  0.28550689  0.71647280  0.96466944  1
  Sc  Sc12  1  0.49999924  0.00000000  0.00000000  1
  Sc  Sc13  1  0.00000000  0.49999978  0.00000000  1
  Sc  Sc14  1  0.49999924  0.00000000  0.49999979  1
  Sc  Sc15  1  0.00000000  0.49999978  0.49999979  1
  Sr  Sr16  1  0.99341630  0.03304773  0.24999989  1
  Sr  Sr17  1  0.50658318  0.53304923  0.24999989  1
  Sr  Sr18  1  0.49341705  0.46695205  0.74999968  1
  Sr  Sr19  1  0.00658393  0.96695183  0.74999968  1
