# generated using pymatgen
data_TmBeO3
_symmetry_space_group_name_H-M   'P 1'
_cell_length_a   4.87593250
_cell_length_b   5.33339690
_cell_length_c   6.95927118
_cell_angle_alpha   90.00000000
_cell_angle_beta   90.00000000
_cell_angle_gamma   90.00000000
_symmetry_Int_Tables_number   1
_chemical_formula_structural   TmBeO3
_chemical_formula_sum   'Tm4 Be4 O12'
_cell_volume   180.97781843
_cell_formula_units_Z   4
loop_
 _symmetry_equiv_pos_site_id
 _symmetry_equiv_pos_as_xyz
  1  'x, y, z'
loop_
 _atom_site_type_symbol
 _atom_site_label
 _atom_site_symmetry_multiplicity
 _atom_site_fract_x
 _atom_site_fract_y
 _atom_site_fract_z
 _atom_site_occupancy
  Be  Be0  1  0.50000077  0.00000000  0.00000000  1
  Be  Be1  1  0.00000000  0.50000029  0.00000000  1
  Be  Be2  1  0.50000077  0.00000000  0.50000063  1
  Be  Be3  1  0.00000000  0.50000029  0.50000063  1
  O  O4  1  0.68433474  0.28483348  0.03837902  1
  O  O5  1  0.81566347  0.78483190  0.03837902  1
  O  O6  1  0.07117408  0.48801168  0.25000032  1
  O  O7  1  0.42882669  0.98801197  0.25000032  1
  O  O8  1  0.68433474  0.28483348  0.46162161  1
  O  O9  1  0.81566347  0.78483190  0.46162161  1
  O  O10  1  0.18433602  0.21516681  0.53837822  1
  O  O11  1  0.31566270  0.71516710  0.53837822  1
  O  O12  1  0.57117485  0.01198861  0.75000095  1
  O  O13  1  0.92882541  0.51198702  0.75000095  1
  O  O14  1  0.18433602  0.21516681  0.96162081  1
  O  O15  1  0.31566270  0.71516710  0.96162081  1
  Tm  Tm16  1  0.97539086  0.07580535  0.25000032  1
  Tm  Tm17  1  0.52460940  0.57580564  0.25000032  1
  Tm  Tm18  1  0.47539214  0.42419494  0.75000095  1
  Tm  Tm19  1  0.02460863  0.92419523  0.75000095  1
