# generated using pymatgen
data_VSnO3
_symmetry_space_group_name_H-M   'P 1'
_cell_length_a   5.41780700
_cell_length_b   5.62904100
_cell_length_c   7.85464100
_cell_angle_alpha   90.00000000
_cell_angle_beta   90.00000000
_cell_angle_gamma   90.00000000
_symmetry_Int_Tables_number   1
_chemical_formula_structural   VSnO3
_chemical_formula_sum   'V4 Sn4 O12'
_cell_volume   239.54344005
_cell_formula_units_Z   4
loop_
 _symmetry_equiv_pos_site_id
 _symmetry_equiv_pos_as_xyz
  1  'x, y, z'
loop_
 _atom_site_type_symbol
 _atom_site_label
 _atom_site_symmetry_multiplicity
 _atom_site_fract_x
 _atom_site_fract_y
 _atom_site_fract_z
 _atom_site_occupancy
  V  V0  1  0.00868000  0.45302900  0.25000000  1
  V  V1  1  0.99132000  0.54697100  0.75000000  1
  V  V2  1  0.50868000  0.04697100  0.75000000  1
  V  V3  1  0.49132000  0.95302900  0.25000000  1
  Sn  Sn4  1  0.00000000  0.00000000  0.00000000  1
  Sn  Sn5  1  0.50000000  0.50000000  0.00000000  1
  Sn  Sn6  1  0.00000000  0.00000000  0.50000000  1
  Sn  Sn7  1  0.50000000  0.50000000  0.50000000  1
  O  O8  1  0.32160900  0.18677700  0.07058500  1
  O  O9  1  0.67839100  0.81322300  0.92941500  1
  O  O10  1  0.82160900  0.31322300  0.92941500  1
  O  O11  1  0.67839100  0.81322300  0.57058500  1
  O  O12  1  0.17839100  0.68677700  0.07058500  1
  O  O13  1  0.32160900  0.18677700  0.42941500  1
  O  O14  1  0.17839100  0.68677700  0.42941500  1
  O  O15  1  0.82160900  0.31322300  0.57058500  1
  O  O16  1  0.63588400  0.57356800  0.25000000  1
  O  O17  1  0.36411600  0.42643200  0.75000000  1
  O  O18  1  0.13588400  0.92643200  0.75000000  1
  O  O19  1  0.86411600  0.07356800  0.25000000  1
