# generated using pymatgen
data_TbInO3
_symmetry_space_group_name_H-M   'P 1'
_cell_length_a   5.56706700
_cell_length_b   5.89846600
_cell_length_c   8.20451300
_cell_angle_alpha   90.00000000
_cell_angle_beta   90.00000000
_cell_angle_gamma   90.00000000
_symmetry_Int_Tables_number   1
_chemical_formula_structural   TbInO3
_chemical_formula_sum   'Tb4 In4 O12'
_cell_volume   269.41286852
_cell_formula_units_Z   4
loop_
 _symmetry_equiv_pos_site_id
 _symmetry_equiv_pos_as_xyz
  1  'x, y, z'
loop_
 _atom_site_type_symbol
 _atom_site_label
 _atom_site_symmetry_multiplicity
 _atom_site_fract_x
 _atom_site_fract_y
 _atom_site_fract_z
 _atom_site_occupancy
  Tb  Tb0  1  0.52110000  0.93515300  0.75000000  1
  Tb  Tb1  1  0.97890000  0.43515300  0.75000000  1
  Tb  Tb2  1  0.02110000  0.56484700  0.25000000  1
  Tb  Tb3  1  0.47890000  0.06484700  0.25000000  1
  In  In4  1  0.50000000  0.50000000  0.00000000  1
  In  In5  1  0.50000000  0.50000000  0.50000000  1
  In  In6  1  0.00000000  0.00000000  0.00000000  1
  In  In7  1  0.00000000  0.00000000  0.50000000  1
  O  O8  1  0.64419000  0.43029400  0.25000000  1
  O  O9  1  0.68460700  0.18832400  0.57360000  1
  O  O10  1  0.68460700  0.18832400  0.92640000  1
  O  O11  1  0.81539300  0.68832400  0.92640000  1
  O  O12  1  0.81539300  0.68832400  0.57360000  1
  O  O13  1  0.85581000  0.93029400  0.25000000  1
  O  O14  1  0.14419000  0.06970600  0.75000000  1
  O  O15  1  0.18460700  0.31167600  0.07360000  1
  O  O16  1  0.18460700  0.31167600  0.42640000  1
  O  O17  1  0.31539300  0.81167600  0.07360000  1
  O  O18  1  0.31539300  0.81167600  0.42640000  1
  O  O19  1  0.35581000  0.56970600  0.75000000  1
