# generated using pymatgen
data_LaAgO3
_symmetry_space_group_name_H-M   'P 1'
_cell_length_a   5.63466381
_cell_length_b   5.99359698
_cell_length_c   8.08048261
_cell_angle_alpha   90.00000000
_cell_angle_beta   90.00000000
_cell_angle_gamma   90.00000000
_symmetry_Int_Tables_number   1
_chemical_formula_structural   LaAgO3
_chemical_formula_sum   'La4 Ag4 O12'
_cell_volume   272.89328276
_cell_formula_units_Z   4
loop_
 _symmetry_equiv_pos_site_id
 _symmetry_equiv_pos_as_xyz
  1  'x, y, z'
loop_
 _atom_site_type_symbol
 _atom_site_label
 _atom_site_symmetry_multiplicity
 _atom_site_fract_x
 _atom_site_fract_y
 _atom_site_fract_z
 _atom_site_occupancy
  Ag  Ag0  1  0.49999966  0.00000000  0.00000000  1
  Ag  Ag1  1  0.00000000  0.50000025  0.00000000  1
  Ag  Ag2  1  0.49999966  0.00000000  0.49999984  1
  Ag  Ag3  1  0.00000000  0.50000025  0.49999984  1
  La  La4  1  0.98187047  0.06774897  0.24999992  1
  La  La5  1  0.51813029  0.56774922  0.24999992  1
  La  La6  1  0.48187081  0.43225129  0.74999976  1
  La  La7  1  0.01813063  0.93225154  0.74999976  1
  O  O8  1  0.69659879  0.30606829  0.05698422  1
  O  O9  1  0.80340197  0.80606855  0.05698422  1
  O  O10  1  0.11202443  0.46024950  0.24999992  1
  O  O11  1  0.38797523  0.96024808  0.24999992  1
  O  O12  1  0.69659879  0.30606829  0.44301562  1
  O  O13  1  0.80340197  0.80606855  0.44301562  1
  O  O14  1  0.19659913  0.19393196  0.55698406  1
  O  O15  1  0.30340231  0.69393221  0.55698406  1
  O  O16  1  0.61202409  0.03975075  0.74999976  1
  O  O17  1  0.88797489  0.53975101  0.74999976  1
  O  O18  1  0.19659913  0.19393196  0.94301546  1
  O  O19  1  0.30340231  0.69393221  0.94301546  1
