# generated using pymatgen
data_CeTmO3
_symmetry_space_group_name_H-M   'P 1'
_cell_length_a   5.80956500
_cell_length_b   6.02656600
_cell_length_c   8.39538900
_cell_angle_alpha   90.00000000
_cell_angle_beta   90.00000000
_cell_angle_gamma   90.00000000
_symmetry_Int_Tables_number   1
_chemical_formula_structural   CeTmO3
_chemical_formula_sum   'Ce4 Tm4 O12'
_cell_volume   293.93706692
_cell_formula_units_Z   4
loop_
 _symmetry_equiv_pos_site_id
 _symmetry_equiv_pos_as_xyz
  1  'x, y, z'
loop_
 _atom_site_type_symbol
 _atom_site_label
 _atom_site_symmetry_multiplicity
 _atom_site_fract_x
 _atom_site_fract_y
 _atom_site_fract_z
 _atom_site_occupancy
  Ce  Ce0  1  0.01387000  0.44525400  0.25000000  1
  Ce  Ce1  1  0.98613000  0.55474600  0.75000000  1
  Ce  Ce2  1  0.51387000  0.05474600  0.75000000  1
  Ce  Ce3  1  0.48613000  0.94525400  0.25000000  1
  Tm  Tm4  1  0.00000000  0.00000000  0.00000000  1
  Tm  Tm5  1  0.50000000  0.50000000  0.00000000  1
  Tm  Tm6  1  0.00000000  0.00000000  0.50000000  1
  Tm  Tm7  1  0.50000000  0.50000000  0.50000000  1
  O  O8  1  0.31483400  0.18787300  0.06714500  1
  O  O9  1  0.68516600  0.81212700  0.93285500  1
  O  O10  1  0.81483400  0.31212700  0.93285500  1
  O  O11  1  0.68516600  0.81212700  0.56714500  1
  O  O12  1  0.18516600  0.68787300  0.06714500  1
  O  O13  1  0.31483400  0.18787300  0.43285500  1
  O  O14  1  0.18516600  0.68787300  0.43285500  1
  O  O15  1  0.81483400  0.31212700  0.56714500  1
  O  O16  1  0.62996100  0.55871200  0.25000000  1
  O  O17  1  0.37003900  0.44128800  0.75000000  1
  O  O18  1  0.12996100  0.94128800  0.75000000  1
  O  O19  1  0.87003900  0.05871200  0.25000000  1
