# generated using pymatgen
data_NaAsO3
_symmetry_space_group_name_H-M   'P 1'
_cell_length_a   5.15877664
_cell_length_b   5.15633568
_cell_length_c   7.29557128
_cell_angle_alpha   90.00000000
_cell_angle_beta   90.00000000
_cell_angle_gamma   90.00000000
_symmetry_Int_Tables_number   1
_chemical_formula_structural   NaAsO3
_chemical_formula_sum   'Na4 As4 O12'
_cell_volume   194.06499797
_cell_formula_units_Z   4
loop_
 _symmetry_equiv_pos_site_id
 _symmetry_equiv_pos_as_xyz
  1  'x, y, z'
loop_
 _atom_site_type_symbol
 _atom_site_label
 _atom_site_symmetry_multiplicity
 _atom_site_fract_x
 _atom_site_fract_y
 _atom_site_fract_z
 _atom_site_occupancy
  As  As0  1  0.50000033  0.00000000  0.00000000  1
  As  As1  1  0.00000000  0.50000042  0.00000000  1
  As  As2  1  0.50000033  0.00000000  0.50000060  1
  As  As3  1  0.00000000  0.50000042  0.50000060  1
  Na  Na4  1  0.99258998  0.03758289  0.24999961  1
  Na  Na5  1  0.50740906  0.53758331  0.24999961  1
  Na  Na6  1  0.49258965  0.46241753  0.75000021  1
  Na  Na7  1  0.00740873  0.96241795  0.75000021  1
  O  O8  1  0.70536491  0.29065796  0.04079598  1
  O  O9  1  0.79463413  0.79065838  0.04079598  1
  O  O10  1  0.08017986  0.48471437  0.24999961  1
  O  O11  1  0.41982046  0.98471285  0.24999961  1
  O  O12  1  0.70536491  0.29065796  0.45920461  1
  O  O13  1  0.79463413  0.79065838  0.45920461  1
  O  O14  1  0.20536652  0.20934246  0.54079521  1
  O  O15  1  0.29463381  0.70934288  0.54079521  1
  O  O16  1  0.58018019  0.01528799  0.75000021  1
  O  O17  1  0.91982079  0.51528841  0.75000021  1
  O  O18  1  0.20536652  0.20934246  0.95920521  1
  O  O19  1  0.29463381  0.70934288  0.95920521  1
