# generated using pymatgen
data_YbInO3
_symmetry_space_group_name_H-M   'P 1'
_cell_length_a   5.69585242
_cell_length_b   5.97270402
_cell_length_c   7.48767976
_cell_angle_alpha   90.00000000
_cell_angle_beta   90.00000000
_cell_angle_gamma   90.00000000
_symmetry_Int_Tables_number   1
_chemical_formula_structural   YbInO3
_chemical_formula_sum   'Yb4 In4 O12'
_cell_volume   254.72817493
_cell_formula_units_Z   4
loop_
 _symmetry_equiv_pos_site_id
 _symmetry_equiv_pos_as_xyz
  1  'x, y, z'
loop_
 _atom_site_type_symbol
 _atom_site_label
 _atom_site_symmetry_multiplicity
 _atom_site_fract_x
 _atom_site_fract_y
 _atom_site_fract_z
 _atom_site_occupancy
  In  In0  1  0.50000067  0.00000000  0.00000000  1
  In  In1  1  0.00000000  0.49999966  0.00000000  1
  In  In2  1  0.50000067  0.00000000  0.50000002  1
  In  In3  1  0.00000000  0.49999966  0.50000002  1
  O  O4  1  0.69792012  0.29539887  0.07840880  1
  O  O5  1  0.80208012  0.79539853  0.07840880  1
  O  O6  1  0.15351346  0.42140879  0.25000001  1
  O  O7  1  0.34648721  0.92140846  0.25000001  1
  O  O8  1  0.69792012  0.29539887  0.42159121  1
  O  O9  1  0.80208012  0.79539853  0.42159121  1
  O  O10  1  0.19792121  0.20460080  0.57840882  1
  O  O11  1  0.30207946  0.70460046  0.57840882  1
  O  O12  1  0.65351412  0.07859087  0.75000002  1
  O  O13  1  0.84648612  0.57859221  0.75000002  1
  O  O14  1  0.19792121  0.20460080  0.92159123  1
  O  O15  1  0.30207946  0.70460046  0.92159123  1
  Yb  Yb16  1  0.98095414  0.06902066  0.25000001  1
  Yb  Yb17  1  0.51904610  0.56902033  0.25000001  1
  Yb  Yb18  1  0.48095347  0.43097900  0.75000002  1
  Yb  Yb19  1  0.01904719  0.93098034  0.75000002  1
