# generated using pymatgen
data_RbSrCl3
_symmetry_space_group_name_H-M   'P 1'
_cell_length_a   7.63100000
_cell_length_b   10.97300000
_cell_length_c   7.92400000
_cell_angle_alpha   90.00000000
_cell_angle_beta   90.00000000
_cell_angle_gamma   90.00000000
_symmetry_Int_Tables_number   1
_chemical_formula_structural   RbSrCl3
_chemical_formula_sum   'Rb4 Sr4 Cl12'
_cell_volume   663.51584681
_cell_formula_units_Z   4
loop_
 _symmetry_equiv_pos_site_id
 _symmetry_equiv_pos_as_xyz
  1  'x, y, z'
loop_
 _atom_site_type_symbol
 _atom_site_label
 _atom_site_symmetry_multiplicity
 _atom_site_fract_x
 _atom_site_fract_y
 _atom_site_fract_z
 _atom_site_occupancy
  Cl  Cl0  1  0.09878862  0.25000000  0.99199256  1
  Cl  Cl1  1  0.66493645  0.03152011  0.80228686  1
  Cl  Cl2  1  0.66493645  0.46847989  0.80228686  1
  Cl  Cl3  1  0.16493645  0.03152011  0.69771314  1
  Cl  Cl4  1  0.16493645  0.46847989  0.69771314  1
  Cl  Cl5  1  0.59878862  0.25000000  0.50800744  1
  Cl  Cl6  1  0.40121138  0.75000000  0.49199256  1
  Cl  Cl7  1  0.83506355  0.53152011  0.30228686  1
  Cl  Cl8  1  0.83506355  0.96847989  0.30228686  1
  Cl  Cl9  1  0.33506355  0.53152011  0.19771314  1
  Cl  Cl10  1  0.33506355  0.96847989  0.19771314  1
  Cl  Cl11  1  0.90121138  0.75000000  0.00800744  1
  Rb  Rb12  1  0.51105664  0.75000000  0.94915244  1
  Rb  Rb13  1  0.01105664  0.75000000  0.55084756  1
  Rb  Rb14  1  0.98894336  0.25000000  0.44915244  1
  Rb  Rb15  1  0.48894336  0.25000000  0.05084756  1
  Sr  Sr16  1  0.00000000  0.50000000  0.00000000  1
  Sr  Sr17  1  0.00000000  0.00000000  0.00000000  1
  Sr  Sr18  1  0.50000000  0.50000000  0.50000000  1
  Sr  Sr19  1  0.50000000  0.00000000  0.50000000  1
