# generated using pymatgen
data_RbSrCl3
_symmetry_space_group_name_H-M   'P 1'
_cell_length_a   8.01750556
_cell_length_b   10.96876958
_cell_length_c   7.65117382
_cell_angle_alpha   90.00000000
_cell_angle_beta   90.00000000
_cell_angle_gamma   90.00000000
_symmetry_Int_Tables_number   1
_chemical_formula_structural   RbSrCl3
_chemical_formula_sum   'Rb4 Sr4 Cl12'
_cell_volume   672.86083751
_cell_formula_units_Z   4
loop_
 _symmetry_equiv_pos_site_id
 _symmetry_equiv_pos_as_xyz
  1  'x, y, z'
loop_
 _atom_site_type_symbol
 _atom_site_label
 _atom_site_symmetry_multiplicity
 _atom_site_fract_x
 _atom_site_fract_y
 _atom_site_fract_z
 _atom_site_occupancy
  Cl  Cl0  1  0.53814618  0.24999978  0.10513550  1
  Cl  Cl1  1  0.79928102  0.55422716  0.19595686  1
  Cl  Cl2  1  0.79928102  0.94577244  0.19595686  1
  Cl  Cl3  1  0.29928012  0.55422716  0.30404354  1
  Cl  Cl4  1  0.29928012  0.94577244  0.30404354  1
  Cl  Cl5  1  0.03814653  0.24999978  0.39486490  1
  Cl  Cl6  1  0.96185278  0.75000026  0.60513591  1
  Cl  Cl7  1  0.70071919  0.05422760  0.69595726  1
  Cl  Cl8  1  0.70071919  0.44577288  0.69595726  1
  Cl  Cl9  1  0.20071954  0.05422760  0.80404264  1
  Cl  Cl10  1  0.20071954  0.44577288  0.80404264  1
  Cl  Cl11  1  0.46185313  0.75000026  0.89486400  1
  Rb  Rb12  1  0.06481318  0.75000026  0.01940094  1
  Rb  Rb13  1  0.56481408  0.75000026  0.48059946  1
  Rb  Rb14  1  0.43518648  0.24999978  0.51940135  1
  Rb  Rb15  1  0.93518613  0.24999978  0.98059856  1
  Sr  Sr16  1  0.49999965  0.00000000  0.00000000  1
  Sr  Sr17  1  0.49999965  0.49999956  0.00000000  1
  Sr  Sr18  1  0.00000000  0.00000000  0.50000040  1
  Sr  Sr19  1  0.00000000  0.49999956  0.50000040  1
