# generated using pymatgen
data_CdIrO3
_symmetry_space_group_name_H-M   'P 1'
_cell_length_a   5.41740630
_cell_length_b   5.44299669
_cell_length_c   7.74668516
_cell_angle_alpha   90.00000000
_cell_angle_beta   90.00000000
_cell_angle_gamma   90.00000000
_symmetry_Int_Tables_number   1
_chemical_formula_structural   CdIrO3
_chemical_formula_sum   'Cd4 Ir4 O12'
_cell_volume   228.42592115
_cell_formula_units_Z   4
loop_
 _symmetry_equiv_pos_site_id
 _symmetry_equiv_pos_as_xyz
  1  'x, y, z'
loop_
 _atom_site_type_symbol
 _atom_site_label
 _atom_site_symmetry_multiplicity
 _atom_site_fract_x
 _atom_site_fract_y
 _atom_site_fract_z
 _atom_site_occupancy
  Cd  Cd0  1  0.99150769  0.04604265  0.24999983  1
  Cd  Cd1  1  0.50849241  0.54604112  0.24999983  1
  Cd  Cd2  1  0.49150642  0.45395949  0.74999950  1
  Cd  Cd3  1  0.00849299  0.95395796  0.74999950  1
  Ir  Ir4  1  0.49999942  0.00000000  0.00000000  1
  Ir  Ir5  1  0.00000000  0.49999847  0.00000000  1
  Ir  Ir6  1  0.49999942  0.00000000  0.49999967  1
  Ir  Ir7  1  0.00000000  0.49999847  0.49999967  1
  O  O8  1  0.69557641  0.30422212  0.05913884  1
  O  O9  1  0.80442370  0.80422059  0.05913884  1
  O  O10  1  0.11183765  0.44862236  0.24999983  1
  O  O11  1  0.38816177  0.94862266  0.24999983  1
  O  O12  1  0.69557641  0.30422212  0.44086082  1
  O  O13  1  0.80442370  0.80422059  0.44086082  1
  O  O14  1  0.19557514  0.19578002  0.55913980  1
  O  O15  1  0.30442428  0.69577849  0.55913980  1
  O  O16  1  0.61183892  0.05137795  0.74999950  1
  O  O17  1  0.88816119  0.55137825  0.74999950  1
  O  O18  1  0.19557514  0.19578002  0.94086178  1
  O  O19  1  0.30442428  0.69577849  0.94086178  1
