# generated using pymatgen
data_CsSrCl3
_symmetry_space_group_name_H-M   'P 1'
_cell_length_a   5.73028118
_cell_length_b   5.73028118
_cell_length_c   5.72980373
_cell_angle_alpha   89.84193361
_cell_angle_beta   89.84193361
_cell_angle_gamma   90.15441322
_symmetry_Int_Tables_number   1
_chemical_formula_structural   CsSrCl3
_chemical_formula_sum   'Cs1 Sr1 Cl3'
_cell_volume   188.14241727
_cell_formula_units_Z   1
loop_
 _symmetry_equiv_pos_site_id
 _symmetry_equiv_pos_as_xyz
  1  'x, y, z'
loop_
 _atom_site_type_symbol
 _atom_site_label
 _atom_site_symmetry_multiplicity
 _atom_site_fract_x
 _atom_site_fract_y
 _atom_site_fract_z
 _atom_site_occupancy
  Cs  Cs0  1  0.99801200  0.99801200  0.00417300  1
  Sr  Sr1  1  0.49994700  0.49994700  0.51278100  1
  Cl  Cl2  1  0.99988900  0.49576500  0.51720000  1
  Cl  Cl3  1  0.50710700  0.50710700  0.01301700  1
  Cl  Cl4  1  0.49576500  0.99988900  0.51720000  1
