# generated using pymatgen
data_EuTcO3
_symmetry_space_group_name_H-M   'P 1'
_cell_length_a   5.44552227
_cell_length_b   5.55178175
_cell_length_c   7.75378826
_cell_angle_alpha   90.00000000
_cell_angle_beta   90.00000000
_cell_angle_gamma   90.00000000
_symmetry_Int_Tables_number   1
_chemical_formula_structural   EuTcO3
_chemical_formula_sum   'Eu4 Tc4 O12'
_cell_volume   234.41524943
_cell_formula_units_Z   4
loop_
 _symmetry_equiv_pos_site_id
 _symmetry_equiv_pos_as_xyz
  1  'x, y, z'
loop_
 _atom_site_type_symbol
 _atom_site_label
 _atom_site_symmetry_multiplicity
 _atom_site_fract_x
 _atom_site_fract_y
 _atom_site_fract_z
 _atom_site_occupancy
  Eu  Eu0  1  0.99077916  0.04397147  0.24999909  1
  Eu  Eu1  1  0.50922021  0.54397131  0.24999909  1
  Eu  Eu2  1  0.49078121  0.45602837  0.74999985  1
  Eu  Eu3  1  0.00921858  0.95602822  0.74999985  1
  O  O4  1  0.70781641  0.29025096  0.03849086  1
  O  O5  1  0.79218297  0.79025081  0.03849086  1
  O  O6  1  0.07388639  0.48537571  0.24999909  1
  O  O7  1  0.42611340  0.98537555  0.24999909  1
  O  O8  1  0.70781641  0.29025096  0.46150860  1
  O  O9  1  0.79218297  0.79025081  0.46150860  1
  O  O10  1  0.20781661  0.20974708  0.53849033  1
  O  O11  1  0.29218318  0.70974872  0.53849033  1
  O  O12  1  0.57388619  0.01462233  0.74999985  1
  O  O13  1  0.92611319  0.51462398  0.74999985  1
  O  O14  1  0.20781661  0.20974708  0.96150936  1
  O  O15  1  0.29218318  0.70974872  0.96150936  1
  Tc  Tc16  1  0.49999979  0.00000000  0.00000000  1
  Tc  Tc17  1  0.00000000  0.49999984  0.00000000  1
  Tc  Tc18  1  0.49999979  0.00000000  0.50000076  1
  Tc  Tc19  1  0.00000000  0.49999984  0.50000076  1
