# generated using pymatgen
data_LuNiO3
_symmetry_space_group_name_H-M   'P 1'
_cell_length_a   5.10104500
_cell_length_b   5.62949800
_cell_length_c   7.31846500
_cell_angle_alpha   90.00000000
_cell_angle_beta   90.00000000
_cell_angle_gamma   90.00000000
_symmetry_Int_Tables_number   1
_chemical_formula_structural   LuNiO3
_chemical_formula_sum   'Lu4 Ni4 O12'
_cell_volume   210.15940206
_cell_formula_units_Z   4
loop_
 _symmetry_equiv_pos_site_id
 _symmetry_equiv_pos_as_xyz
  1  'x, y, z'
loop_
 _atom_site_type_symbol
 _atom_site_label
 _atom_site_symmetry_multiplicity
 _atom_site_fract_x
 _atom_site_fract_y
 _atom_site_fract_z
 _atom_site_occupancy
  Lu  Lu0  1  0.52714100  0.58716200  0.25000000  1
  Lu  Lu1  1  0.97285900  0.08716200  0.25000000  1
  Lu  Lu2  1  0.47285900  0.41283800  0.75000000  1
  Lu  Lu3  1  0.02714100  0.91283800  0.75000000  1
  Ni  Ni4  1  0.00000000  0.50000000  0.00000000  1
  Ni  Ni5  1  0.50000000  0.00000000  0.50000000  1
  Ni  Ni6  1  0.00000000  0.50000000  0.50000000  1
  Ni  Ni7  1  0.50000000  0.00000000  0.00000000  1
  O  O8  1  0.37934100  0.96133100  0.25000000  1
  O  O9  1  0.12065900  0.46133100  0.25000000  1
  O  O10  1  0.62065900  0.03866900  0.75000000  1
  O  O11  1  0.87934100  0.53866900  0.75000000  1
  O  O12  1  0.80571900  0.81461300  0.05817900  1
  O  O13  1  0.69428100  0.31461300  0.44182100  1
  O  O14  1  0.19428100  0.18538700  0.55817900  1
  O  O15  1  0.30571900  0.68538700  0.94182100  1
  O  O16  1  0.19428100  0.18538700  0.94182100  1
  O  O17  1  0.30571900  0.68538700  0.55817900  1
  O  O18  1  0.80571900  0.81461300  0.44182100  1
  O  O19  1  0.69428100  0.31461300  0.05817900  1
