# generated using pymatgen
data_LiRuO3
_symmetry_space_group_name_H-M   'P 1'
_cell_length_a   5.09202828
_cell_length_b   5.40216671
_cell_length_c   6.54715253
_cell_angle_alpha   90.00000000
_cell_angle_beta   90.00000000
_cell_angle_gamma   90.00000000
_symmetry_Int_Tables_number   1
_chemical_formula_structural   LiRuO3
_chemical_formula_sum   'Li4 Ru4 O12'
_cell_volume   180.09897816
_cell_formula_units_Z   4
loop_
 _symmetry_equiv_pos_site_id
 _symmetry_equiv_pos_as_xyz
  1  'x, y, z'
loop_
 _atom_site_type_symbol
 _atom_site_label
 _atom_site_symmetry_multiplicity
 _atom_site_fract_x
 _atom_site_fract_y
 _atom_site_fract_z
 _atom_site_occupancy
  Li  Li0  1  0.49999919  0.00000000  0.00000000  1
  Li  Li1  1  0.00000000  0.49999938  0.00000000  1
  Li  Li2  1  0.49999919  0.00000000  0.50000057  1
  Li  Li3  1  0.00000000  0.49999938  0.50000057  1
  O  O4  1  0.64260248  0.34586308  0.06079590  1
  O  O5  1  0.85739704  0.84586246  0.06079590  1
  O  O6  1  0.13800198  0.41475395  0.25000029  1
  O  O7  1  0.36199720  0.91475333  0.25000029  1
  O  O8  1  0.64260248  0.34586308  0.43920315  1
  O  O9  1  0.85739704  0.84586246  0.43920315  1
  O  O10  1  0.14260133  0.15413630  0.56079647  1
  O  O11  1  0.35739786  0.65413753  0.56079647  1
  O  O12  1  0.63800313  0.08524728  0.74999933  1
  O  O13  1  0.86199639  0.58524666  0.74999933  1
  O  O14  1  0.14260133  0.15413630  0.93920372  1
  O  O15  1  0.35739786  0.65413753  0.93920372  1
  Ru  Ru16  1  0.02637849  0.07195631  0.25000029  1
  Ru  Ru17  1  0.47362070  0.57195754  0.25000029  1
  Ru  Ru18  1  0.52637964  0.42804307  0.74999933  1
  Ru  Ru19  1  0.97362151  0.92804244  0.74999933  1
