# generated using pymatgen
data_EuMgO3
_symmetry_space_group_name_H-M   'P 1'
_cell_length_a   5.21901076
_cell_length_b   5.84497974
_cell_length_c   7.79176199
_cell_angle_alpha   90.00000000
_cell_angle_beta   90.00000000
_cell_angle_gamma   90.00000000
_symmetry_Int_Tables_number   1
_chemical_formula_structural   EuMgO3
_chemical_formula_sum   'Eu4 Mg4 O12'
_cell_volume   237.68779428
_cell_formula_units_Z   4
loop_
 _symmetry_equiv_pos_site_id
 _symmetry_equiv_pos_as_xyz
  1  'x, y, z'
loop_
 _atom_site_type_symbol
 _atom_site_label
 _atom_site_symmetry_multiplicity
 _atom_site_fract_x
 _atom_site_fract_y
 _atom_site_fract_z
 _atom_site_occupancy
  Eu  Eu0  1  0.97745152  0.06090355  0.25000122  1
  Eu  Eu1  1  0.52254922  0.56090357  0.25000122  1
  Eu  Eu2  1  0.47745255  0.43909647  0.75000109  1
  Eu  Eu3  1  0.02254833  0.93909650  0.75000109  1
  Mg  Mg4  1  0.50000089  0.00000000  0.00000000  1
  Mg  Mg5  1  0.00000000  0.50000002  0.00000000  1
  Mg  Mg6  1  0.50000089  0.00000000  0.49999987  1
  Mg  Mg7  1  0.00000000  0.50000002  0.49999987  1
  O  O8  1  0.69661669  0.28916439  0.03577881  1
  O  O9  1  0.80338213  0.78916441  0.03577881  1
  O  O10  1  0.06636890  0.47518043  0.25000122  1
  O  O11  1  0.43363007  0.97518045  0.25000122  1
  O  O12  1  0.69661669  0.28916439  0.46422106  1
  O  O13  1  0.80338213  0.78916441  0.46422106  1
  O  O14  1  0.19661580  0.21083563  0.53577869  1
  O  O15  1  0.30338316  0.71083565  0.53577869  1
  O  O16  1  0.56636978  0.02481959  0.75000109  1
  O  O17  1  0.93363096  0.52481961  0.75000109  1
  O  O18  1  0.19661580  0.21083563  0.96422093  1
  O  O19  1  0.30338316  0.71083565  0.96422093  1
