# generated using pymatgen
data_SrRhO3
_symmetry_space_group_name_H-M   'P 1'
_cell_length_a   5.57977800
_cell_length_b   5.66864400
_cell_length_c   7.96772800
_cell_angle_alpha   90.00000000
_cell_angle_beta   90.00000000
_cell_angle_gamma   90.00000000
_symmetry_Int_Tables_number   1
_chemical_formula_structural   SrRhO3
_chemical_formula_sum   'Sr4 Rh4 O12'
_cell_volume   252.01744455
_cell_formula_units_Z   4
loop_
 _symmetry_equiv_pos_site_id
 _symmetry_equiv_pos_as_xyz
  1  'x, y, z'
loop_
 _atom_site_type_symbol
 _atom_site_label
 _atom_site_symmetry_multiplicity
 _atom_site_fract_x
 _atom_site_fract_y
 _atom_site_fract_z
 _atom_site_occupancy
  Sr  Sr0  1  0.00831000  0.45534200  0.25000000  1
  Sr  Sr1  1  0.99169000  0.54465800  0.75000000  1
  Sr  Sr2  1  0.50831000  0.04465800  0.75000000  1
  Sr  Sr3  1  0.49169000  0.95534200  0.25000000  1
  Rh  Rh4  1  0.00000000  0.00000000  0.00000000  1
  Rh  Rh5  1  0.50000000  0.50000000  0.00000000  1
  Rh  Rh6  1  0.00000000  0.00000000  0.50000000  1
  Rh  Rh7  1  0.50000000  0.50000000  0.50000000  1
  O  O8  1  0.29662900  0.20484300  0.03760400  1
  O  O9  1  0.70337100  0.79515700  0.96239600  1
  O  O10  1  0.79662900  0.29515700  0.96239600  1
  O  O11  1  0.70337100  0.79515700  0.53760400  1
  O  O12  1  0.20337100  0.70484300  0.03760400  1
  O  O13  1  0.29662900  0.20484300  0.46239600  1
  O  O14  1  0.20337100  0.70484300  0.46239600  1
  O  O15  1  0.79662900  0.29515700  0.53760400  1
  O  O16  1  0.57314500  0.51319600  0.25000000  1
  O  O17  1  0.42685500  0.48680400  0.75000000  1
  O  O18  1  0.07314500  0.98680400  0.75000000  1
  O  O19  1  0.92685500  0.01319600  0.25000000  1
