# generated using pymatgen
data_ZnSnO3
_symmetry_space_group_name_H-M   'P 1'
_cell_length_a   5.38052800
_cell_length_b   5.40772400
_cell_length_c   7.94017600
_cell_angle_alpha   90.00000000
_cell_angle_beta   90.00000000
_cell_angle_gamma   90.00000000
_symmetry_Int_Tables_number   1
_chemical_formula_structural   ZnSnO3
_chemical_formula_sum   'Zn4 Sn4 O12'
_cell_volume   231.03061953
_cell_formula_units_Z   4
loop_
 _symmetry_equiv_pos_site_id
 _symmetry_equiv_pos_as_xyz
  1  'x, y, z'
loop_
 _atom_site_type_symbol
 _atom_site_label
 _atom_site_symmetry_multiplicity
 _atom_site_fract_x
 _atom_site_fract_y
 _atom_site_fract_z
 _atom_site_occupancy
  Zn  Zn0  1  0.00583400  0.03004400  0.75000000  1
  Zn  Zn1  1  0.50583400  0.46995600  0.25000000  1
  Zn  Zn2  1  0.49416600  0.53004400  0.75000000  1
  Zn  Zn3  1  0.99416600  0.96995600  0.25000000  1
  Sn  Sn4  1  0.50000000  0.00000000  0.50000000  1
  Sn  Sn5  1  0.00000000  0.50000000  0.50000000  1
  Sn  Sn6  1  0.00000000  0.50000000  0.00000000  1
  Sn  Sn7  1  0.50000000  0.00000000  0.00000000  1
  O  O8  1  0.87161300  0.59503600  0.25000000  1
  O  O9  1  0.37161300  0.90496400  0.75000000  1
  O  O10  1  0.62838700  0.09503600  0.25000000  1
  O  O11  1  0.12838700  0.40496400  0.75000000  1
  O  O12  1  0.67005500  0.32543400  0.92858100  1
  O  O13  1  0.17005500  0.17456600  0.07141900  1
  O  O14  1  0.82994500  0.82543400  0.57141900  1
  O  O15  1  0.32994500  0.67456600  0.42858100  1
  O  O16  1  0.67005500  0.32543400  0.57141900  1
  O  O17  1  0.17005500  0.17456600  0.42858100  1
  O  O18  1  0.32994500  0.67456600  0.07141900  1
  O  O19  1  0.82994500  0.82543400  0.92858100  1
