# generated using pymatgen
data_LaGaO3
_symmetry_space_group_name_H-M   'P 1'
_cell_length_a   5.55920300
_cell_length_b   5.58868800
_cell_length_c   7.87857500
_cell_angle_alpha   90.00000000
_cell_angle_beta   90.00000000
_cell_angle_gamma   90.00000000
_symmetry_Int_Tables_number   1
_chemical_formula_structural   LaGaO3
_chemical_formula_sum   'La4 Ga4 O12'
_cell_volume   244.77669781
_cell_formula_units_Z   4
loop_
 _symmetry_equiv_pos_site_id
 _symmetry_equiv_pos_as_xyz
  1  'x, y, z'
loop_
 _atom_site_type_symbol
 _atom_site_label
 _atom_site_symmetry_multiplicity
 _atom_site_fract_x
 _atom_site_fract_y
 _atom_site_fract_z
 _atom_site_occupancy
  La  La0  1  0.49229000  0.46653400  0.75000000  1
  La  La1  1  0.99229000  0.03346600  0.25000000  1
  La  La2  1  0.00771000  0.96653400  0.75000000  1
  La  La3  1  0.50771000  0.53346600  0.25000000  1
  Ga  Ga4  1  0.00000000  0.50000000  0.50000000  1
  Ga  Ga5  1  0.50000000  0.00000000  0.50000000  1
  Ga  Ga6  1  0.50000000  0.00000000  0.00000000  1
  Ga  Ga7  1  0.00000000  0.50000000  0.00000000  1
  O  O8  1  0.71621000  0.28477400  0.45881400  1
  O  O9  1  0.21621000  0.21522600  0.54118600  1
  O  O10  1  0.78379000  0.78477400  0.04118600  1
  O  O11  1  0.28379000  0.71522600  0.95881400  1
  O  O12  1  0.28379000  0.71522600  0.54118600  1
  O  O13  1  0.78379000  0.78477400  0.45881400  1
  O  O14  1  0.21621000  0.21522600  0.95881400  1
  O  O15  1  0.71621000  0.28477400  0.04118600  1
  O  O16  1  0.07662800  0.48455600  0.25000000  1
  O  O17  1  0.57662800  0.01544400  0.75000000  1
  O  O18  1  0.42337200  0.98455600  0.25000000  1
  O  O19  1  0.92337200  0.51544400  0.75000000  1
