# generated using pymatgen
data_LaZnO3
_symmetry_space_group_name_H-M   'P 1'
_cell_length_a   5.51984460
_cell_length_b   5.61249251
_cell_length_c   7.83960555
_cell_angle_alpha   90.00000000
_cell_angle_beta   90.00000000
_cell_angle_gamma   90.00000000
_symmetry_Int_Tables_number   1
_chemical_formula_structural   LaZnO3
_chemical_formula_sum   'La4 Zn4 O12'
_cell_volume   242.87165761
_cell_formula_units_Z   4
loop_
 _symmetry_equiv_pos_site_id
 _symmetry_equiv_pos_as_xyz
  1  'x, y, z'
loop_
 _atom_site_type_symbol
 _atom_site_label
 _atom_site_symmetry_multiplicity
 _atom_site_fract_x
 _atom_site_fract_y
 _atom_site_fract_z
 _atom_site_occupancy
  La  La0  1  0.99124167  0.04488558  0.24999982  1
  La  La1  1  0.50875708  0.54488625  0.24999982  1
  La  La2  1  0.49124209  0.45511330  0.74999947  1
  La  La3  1  0.00875930  0.95511219  0.74999947  1
  O  O4  1  0.71247114  0.29147656  0.04107732  1
  O  O5  1  0.78752942  0.79147544  0.04107732  1
  O  O6  1  0.07568873  0.48720956  0.24999982  1
  O  O7  1  0.42431086  0.98721023  0.24999982  1
  O  O8  1  0.71247114  0.29147656  0.45892232  1
  O  O9  1  0.78752942  0.79147544  0.45892232  1
  O  O10  1  0.21247156  0.20852411  0.54107824  1
  O  O11  1  0.28752983  0.70852299  0.54107824  1
  O  O12  1  0.57569012  0.01279111  0.74999947  1
  O  O13  1  0.92431044  0.51278999  0.74999947  1
  O  O14  1  0.21247156  0.20852411  0.95892325  1
  O  O15  1  0.28752983  0.70852299  0.95892325  1
  Zn  Zn16  1  0.49999958  0.00000000  0.00000000  1
  Zn  Zn17  1  0.00000000  0.50000067  0.00000000  1
  Zn  Zn18  1  0.49999958  0.00000000  0.50000092  1
  Zn  Zn19  1  0.00000000  0.50000067  0.50000092  1
