# generated using pymatgen
data_RbSnCl3
_symmetry_space_group_name_H-M   'P 1'
_cell_length_a   5.59874100
_cell_length_b   5.59874100
_cell_length_c   5.61290575
_cell_angle_alpha   89.40499047
_cell_angle_beta   89.40499047
_cell_angle_gamma   90.03880110
_symmetry_Int_Tables_number   1
_chemical_formula_structural   RbSnCl3
_chemical_formula_sum   'Rb1 Sn1 Cl3'
_cell_volume   175.92255861
_cell_formula_units_Z   1
loop_
 _symmetry_equiv_pos_site_id
 _symmetry_equiv_pos_as_xyz
  1  'x, y, z'
loop_
 _atom_site_type_symbol
 _atom_site_label
 _atom_site_symmetry_multiplicity
 _atom_site_fract_x
 _atom_site_fract_y
 _atom_site_fract_z
 _atom_site_occupancy
  Rb  Rb0  1  0.00966700  0.00966700  0.01806200  1
  Sn  Sn1  1  0.49121300  0.49121300  0.47939000  1
  Cl  Cl2  1  0.49532300  0.49532300  0.99246900  1
  Cl  Cl3  1  0.99095800  0.48543000  0.47522700  1
  Cl  Cl4  1  0.48543000  0.99095800  0.47522700  1
