# generated using pymatgen
data_LiTcO3
_symmetry_space_group_name_H-M   'P 1'
_cell_length_a   5.02913846
_cell_length_b   5.26269762
_cell_length_c   7.29853338
_cell_angle_alpha   90.00000000
_cell_angle_beta   90.00000000
_cell_angle_gamma   90.00000000
_symmetry_Int_Tables_number   1
_chemical_formula_structural   LiTcO3
_chemical_formula_sum   'Li4 Tc4 O12'
_cell_volume   193.16907883
_cell_formula_units_Z   4
loop_
 _symmetry_equiv_pos_site_id
 _symmetry_equiv_pos_as_xyz
  1  'x, y, z'
loop_
 _atom_site_type_symbol
 _atom_site_label
 _atom_site_symmetry_multiplicity
 _atom_site_fract_x
 _atom_site_fract_y
 _atom_site_fract_z
 _atom_site_occupancy
  Li  Li0  1  0.98555847  0.04986416  0.24999954  1
  Li  Li1  1  0.51444199  0.54986439  0.24999954  1
  Li  Li2  1  0.48555832  0.45013607  0.75000000  1
  Li  Li3  1  0.01444184  0.95013629  0.75000000  1
  O  O4  1  0.68195378  0.30983920  0.06364703  1
  O  O5  1  0.81804668  0.80983752  0.06364703  1
  O  O6  1  0.12848324  0.46498016  0.24999954  1
  O  O7  1  0.37151691  0.96498039  0.24999954  1
  O  O8  1  0.68195378  0.30983920  0.43635342  1
  O  O9  1  0.81804668  0.80983752  0.43635342  1
  O  O10  1  0.18195363  0.19016103  0.56364749  1
  O  O11  1  0.31804652  0.69016126  0.56364749  1
  O  O12  1  0.62848339  0.03502006  0.75000000  1
  O  O13  1  0.87151707  0.53502029  0.75000000  1
  O  O14  1  0.18195363  0.19016103  0.93635250  1
  O  O15  1  0.31804652  0.69016126  0.93635250  1
  Tc  Tc16  1  0.50000015  0.00000000  0.00000000  1
  Tc  Tc17  1  0.00000000  0.50000023  0.00000000  1
  Tc  Tc18  1  0.50000015  0.00000000  0.50000045  1
  Tc  Tc19  1  0.00000000  0.50000023  0.50000045  1
