# generated using pymatgen
data_InPbCl3
_symmetry_space_group_name_H-M   'P 1'
_cell_length_a   5.75958918
_cell_length_b   5.75958918
_cell_length_c   5.75700159
_cell_angle_alpha   89.83363079
_cell_angle_beta   89.83363079
_cell_angle_gamma   88.85990248
_symmetry_Int_Tables_number   1
_chemical_formula_structural   InPbCl3
_chemical_formula_sum   'In1 Pb1 Cl3'
_cell_volume   190.93686574
_cell_formula_units_Z   1
loop_
 _symmetry_equiv_pos_site_id
 _symmetry_equiv_pos_as_xyz
  1  'x, y, z'
loop_
 _atom_site_type_symbol
 _atom_site_label
 _atom_site_symmetry_multiplicity
 _atom_site_fract_x
 _atom_site_fract_y
 _atom_site_fract_z
 _atom_site_occupancy
  In  In0  1  0.89573600  0.89573600  0.91918200  1
  Pb  Pb1  1  0.49888100  0.49888100  0.50028500  1
  Cl  Cl2  1  0.53953100  0.53953100  0.99832100  1
  Cl  Cl3  1  0.55489300  0.00115900  0.54496400  1
  Cl  Cl4  1  0.00115900  0.55489300  0.54496400  1
