# generated using pymatgen
data_BiRhO3
_symmetry_space_group_name_H-M   'P 1'
_cell_length_a   5.44007200
_cell_length_b   5.92128000
_cell_length_c   7.81221400
_cell_angle_alpha   90.00000000
_cell_angle_beta   90.00000000
_cell_angle_gamma   90.00000000
_symmetry_Int_Tables_number   1
_chemical_formula_structural   BiRhO3
_chemical_formula_sum   'Bi4 Rh4 O12'
_cell_volume   251.64851803
_cell_formula_units_Z   4
loop_
 _symmetry_equiv_pos_site_id
 _symmetry_equiv_pos_as_xyz
  1  'x, y, z'
loop_
 _atom_site_type_symbol
 _atom_site_label
 _atom_site_symmetry_multiplicity
 _atom_site_fract_x
 _atom_site_fract_y
 _atom_site_fract_z
 _atom_site_occupancy
  Bi  Bi0  1  0.01739000  0.93332300  0.75000000  1
  Bi  Bi1  1  0.48261000  0.43332300  0.75000000  1
  Bi  Bi2  1  0.98261000  0.06667700  0.25000000  1
  Bi  Bi3  1  0.51739000  0.56667700  0.25000000  1
  Rh  Rh4  1  0.00000000  0.50000000  0.50000000  1
  Rh  Rh5  1  0.00000000  0.50000000  0.00000000  1
  Rh  Rh6  1  0.50000000  0.00000000  0.50000000  1
  Rh  Rh7  1  0.50000000  0.00000000  0.00000000  1
  O  O8  1  0.67431000  0.31263000  0.04668700  1
  O  O9  1  0.67431000  0.31263000  0.45331300  1
  O  O10  1  0.32569000  0.68737000  0.95331300  1
  O  O11  1  0.87941400  0.54611200  0.75000000  1
  O  O12  1  0.82569000  0.81263000  0.04668700  1
  O  O13  1  0.82569000  0.81263000  0.45331300  1
  O  O14  1  0.37941400  0.95388800  0.25000000  1
  O  O15  1  0.62058600  0.04611200  0.75000000  1
  O  O16  1  0.32569000  0.68737000  0.54668700  1
  O  O17  1  0.17431000  0.18737000  0.95331300  1
  O  O18  1  0.17431000  0.18737000  0.54668700  1
  O  O19  1  0.12058600  0.45388800  0.25000000  1
