# generated using pymatgen
data_NaPbO3
_symmetry_space_group_name_H-M   'P 1'
_cell_length_a   5.87281527
_cell_length_b   6.04746118
_cell_length_c   7.40885769
_cell_angle_alpha   90.00000000
_cell_angle_beta   90.00000000
_cell_angle_gamma   90.00000000
_symmetry_Int_Tables_number   1
_chemical_formula_structural   NaPbO3
_chemical_formula_sum   'Na4 Pb4 O12'
_cell_volume   263.13019199
_cell_formula_units_Z   4
loop_
 _symmetry_equiv_pos_site_id
 _symmetry_equiv_pos_as_xyz
  1  'x, y, z'
loop_
 _atom_site_type_symbol
 _atom_site_label
 _atom_site_symmetry_multiplicity
 _atom_site_fract_x
 _atom_site_fract_y
 _atom_site_fract_z
 _atom_site_occupancy
  Na  Na0  1  0.98935004  0.05646171  0.24999940  1
  Na  Na1  1  0.51065117  0.55645996  0.24999940  1
  Na  Na2  1  0.48935134  0.44353985  0.75000091  1
  Na  Na3  1  0.01065077  0.94353975  0.75000091  1
  O  O4  1  0.70722981  0.28046645  0.09629555  1
  O  O5  1  0.79276800  0.78046470  0.09629555  1
  O  O6  1  0.15837038  0.41680797  0.24999940  1
  O  O7  1  0.34163002  0.91680952  0.24999940  1
  O  O8  1  0.70722981  0.28046645  0.40370461  1
  O  O9  1  0.79276800  0.78046470  0.40370461  1
  O  O10  1  0.20722940  0.21953675  0.59629570  1
  O  O11  1  0.29276930  0.71953335  0.59629570  1
  O  O12  1  0.65837249  0.08319028  0.75000091  1
  O  O13  1  0.84162702  0.58319184  0.75000091  1
  O  O14  1  0.20722940  0.21953675  0.90370342  1
  O  O15  1  0.29276930  0.71953335  0.90370342  1
  Pb  Pb16  1  0.49999870  0.00000000  0.00000000  1
  Pb  Pb17  1  0.00000000  0.49999990  0.00000000  1
  Pb  Pb18  1  0.49999870  0.00000000  0.50000016  1
  Pb  Pb19  1  0.00000000  0.49999990  0.50000016  1
