# generated using pymatgen
data_PuPbO3
_symmetry_space_group_name_H-M   'P 1'
_cell_length_a   5.93823381
_cell_length_b   6.24916481
_cell_length_c   8.49120788
_cell_angle_alpha   90.00000000
_cell_angle_beta   90.00000000
_cell_angle_gamma   90.00000000
_symmetry_Int_Tables_number   1
_chemical_formula_structural   PuPbO3
_chemical_formula_sum   'Pu4 Pb4 O12'
_cell_volume   315.10024799
_cell_formula_units_Z   4
loop_
 _symmetry_equiv_pos_site_id
 _symmetry_equiv_pos_as_xyz
  1  'x, y, z'
loop_
 _atom_site_type_symbol
 _atom_site_label
 _atom_site_symmetry_multiplicity
 _atom_site_fract_x
 _atom_site_fract_y
 _atom_site_fract_z
 _atom_site_occupancy
  O  O0  1  0.67810567  0.31860257  0.07042696  1
  O  O1  1  0.82189253  0.81860219  0.07042696  1
  O  O2  1  0.15688840  0.41515468  0.25000095  1
  O  O3  1  0.34311381  0.91515429  0.25000095  1
  O  O4  1  0.67810567  0.31860257  0.42957257  1
  O  O5  1  0.82189253  0.81860219  0.42957257  1
  O  O6  1  0.17810683  0.18139704  0.57042650  1
  O  O7  1  0.32189538  0.68139826  0.57042650  1
  O  O8  1  0.65688892  0.08484654  0.75000048  1
  O  O9  1  0.84311264  0.58484455  0.75000048  1
  O  O10  1  0.17810683  0.18139704  0.92957446  1
  O  O11  1  0.32189538  0.68139826  0.92957446  1
  Pb  Pb12  1  0.49999884  0.00000000  0.00000000  1
  Pb  Pb13  1  0.00000000  0.49999961  0.00000000  1
  Pb  Pb14  1  0.49999884  0.00000000  0.49999954  1
  Pb  Pb15  1  0.00000000  0.49999961  0.49999954  1
  Pu  Pu16  1  0.98797727  0.05654356  0.25000095  1
  Pu  Pu17  1  0.51202598  0.55654157  0.25000095  1
  Pu  Pu18  1  0.48797674  0.44345606  0.75000048  1
  Pu  Pu19  1  0.01202378  0.94345727  0.75000048  1
