# generated using pymatgen
data_PuPbO3
_symmetry_space_group_name_H-M   'P 1'
_cell_length_a   5.97728788
_cell_length_b   6.16149291
_cell_length_c   8.58647187
_cell_angle_alpha   90.00000000
_cell_angle_beta   90.00000000
_cell_angle_gamma   90.00000000
_symmetry_Int_Tables_number   1
_chemical_formula_structural   PuPbO3
_chemical_formula_sum   'Pu4 Pb4 O12'
_cell_volume   316.23131743
_cell_formula_units_Z   4
loop_
 _symmetry_equiv_pos_site_id
 _symmetry_equiv_pos_as_xyz
  1  'x, y, z'
loop_
 _atom_site_type_symbol
 _atom_site_label
 _atom_site_symmetry_multiplicity
 _atom_site_fract_x
 _atom_site_fract_y
 _atom_site_fract_z
 _atom_site_occupancy
  O  O0  1  0.69087019  0.30450575  0.05216694  1
  O  O1  1  0.80912951  0.80450632  0.05216694  1
  O  O2  1  0.10728277  0.47113257  0.25000024  1
  O  O3  1  0.39271657  0.97113152  0.25000024  1
  O  O4  1  0.69087019  0.30450575  0.44783353  1
  O  O5  1  0.80912951  0.80450632  0.44783353  1
  O  O6  1  0.19087085  0.19549321  0.55216625  1
  O  O7  1  0.30912849  0.69549378  0.55216625  1
  O  O8  1  0.60728211  0.02886800  0.75000071  1
  O  O9  1  0.89271758  0.52886696  0.75000071  1
  O  O10  1  0.19087085  0.19549321  0.94783284  1
  O  O11  1  0.30912849  0.69549378  0.94783284  1
  Pb  Pb12  1  0.99118699  0.03721825  0.25000024  1
  Pb  Pb13  1  0.50881270  0.53721883  0.25000024  1
  Pb  Pb14  1  0.49118765  0.46278070  0.75000071  1
  Pb  Pb15  1  0.00881336  0.96278128  0.75000071  1
  Pu  Pu16  1  0.49999934  0.00000000  0.00000000  1
  Pu  Pu17  1  0.00000000  0.49999895  0.00000000  1
  Pu  Pu18  1  0.49999934  0.00000000  0.50000047  1
  Pu  Pu19  1  0.00000000  0.49999895  0.50000047  1
