# generated using pymatgen
data_ErScS3
_symmetry_space_group_name_H-M   'P 1'
_cell_length_a   6.35345200
_cell_length_b   6.97091500
_cell_length_c   9.53949500
_cell_angle_alpha   90.00000000
_cell_angle_beta   90.00000000
_cell_angle_gamma   90.00000000
_symmetry_Int_Tables_number   1
_chemical_formula_structural   ErScS3
_chemical_formula_sum   'Er4 Sc4 S12'
_cell_volume   422.49826038
_cell_formula_units_Z   4
loop_
 _symmetry_equiv_pos_site_id
 _symmetry_equiv_pos_as_xyz
  1  'x, y, z'
loop_
 _atom_site_type_symbol
 _atom_site_label
 _atom_site_symmetry_multiplicity
 _atom_site_fract_x
 _atom_site_fract_y
 _atom_site_fract_z
 _atom_site_occupancy
  Er  Er0  1  0.45855800  0.60112600  0.50813800  1
  Er  Er1  1  0.54144200  0.39887400  0.00813800  1
  Er  Er2  1  0.95855800  0.89887400  0.00813800  1
  Er  Er3  1  0.04144200  0.10112600  0.50813800  1
  Sc  Sc4  1  0.99649600  0.50401600  0.26181600  1
  Sc  Sc5  1  0.00350400  0.49598400  0.76181600  1
  Sc  Sc6  1  0.49649600  0.99598400  0.76181600  1
  Sc  Sc7  1  0.50350400  0.00401600  0.26181600  1
  S  S8  1  0.17382700  0.81365500  0.68426000  1
  S  S9  1  0.82617300  0.18634500  0.18426000  1
  S  S10  1  0.67382700  0.68634500  0.18426000  1
  S  S11  1  0.32617300  0.31365500  0.68426000  1
  S  S12  1  0.17687800  0.81896600  0.33038800  1
  S  S13  1  0.82312200  0.18103400  0.83038800  1
  S  S14  1  0.67687800  0.68103400  0.83038800  1
  S  S15  1  0.32312200  0.31896600  0.33038800  1
  S  S16  1  0.14709900  0.54981200  0.01039800  1
  S  S17  1  0.85290100  0.45018800  0.51039800  1
  S  S18  1  0.64709900  0.95018800  0.51039800  1
  S  S19  1  0.35290100  0.04981200  0.01039800  1
