# generated using pymatgen
data_LiSmO3
_symmetry_space_group_name_H-M   'P 1'
_cell_length_a   5.05108518
_cell_length_b   5.82261402
_cell_length_c   7.39886333
_cell_angle_alpha   90.00000000
_cell_angle_beta   90.00000000
_cell_angle_gamma   90.00000000
_symmetry_Int_Tables_number   1
_chemical_formula_structural   LiSmO3
_chemical_formula_sum   'Li4 Sm4 O12'
_cell_volume   217.60441299
_cell_formula_units_Z   4
loop_
 _symmetry_equiv_pos_site_id
 _symmetry_equiv_pos_as_xyz
  1  'x, y, z'
loop_
 _atom_site_type_symbol
 _atom_site_label
 _atom_site_symmetry_multiplicity
 _atom_site_fract_x
 _atom_site_fract_y
 _atom_site_fract_z
 _atom_site_occupancy
  Li  Li0  1  0.49999949  0.00000000  0.00000000  1
  Li  Li1  1  0.00000000  0.49999880  0.00000000  1
  Li  Li2  1  0.49999949  0.00000000  0.50000113  1
  Li  Li3  1  0.00000000  0.49999880  0.50000113  1
  O  O4  1  0.66691412  0.29782328  0.04638415  1
  O  O5  1  0.83308633  0.79782379  0.04638415  1
  O  O6  1  0.42453848  0.01619376  0.24999921  1
  O  O7  1  0.07546101  0.51619255  0.24999921  1
  O  O8  1  0.66691412  0.29782328  0.45361697  1
  O  O9  1  0.83308633  0.79782379  0.45361697  1
  O  O10  1  0.16691463  0.20217552  0.54638393  1
  O  O11  1  0.33308684  0.70217775  0.54638393  1
  O  O12  1  0.92453796  0.48380676  0.75000034  1
  O  O13  1  0.57546248  0.98380555  0.75000034  1
  O  O14  1  0.16691463  0.20217552  0.95361540  1
  O  O15  1  0.33308684  0.70217775  0.95361540  1
  Sm  Sm16  1  0.96331181  0.10120197  0.24999921  1
  Sm  Sm17  1  0.53668665  0.60120248  0.24999921  1
  Sm  Sm18  1  0.46331232  0.39879855  0.75000034  1
  Sm  Sm19  1  0.03668717  0.89879734  0.75000034  1
