# generated using pymatgen
data_LuTlO3
_symmetry_space_group_name_H-M   'P 1'
_cell_length_a   5.69520000
_cell_length_b   5.80756000
_cell_length_c   8.42578300
_cell_angle_alpha   90.00000000
_cell_angle_beta   90.00000000
_cell_angle_gamma   90.00000000
_symmetry_Int_Tables_number   1
_chemical_formula_structural   LuTlO3
_chemical_formula_sum   'Lu4 Tl4 O12'
_cell_volume   278.68459027
_cell_formula_units_Z   4
loop_
 _symmetry_equiv_pos_site_id
 _symmetry_equiv_pos_as_xyz
  1  'x, y, z'
loop_
 _atom_site_type_symbol
 _atom_site_label
 _atom_site_symmetry_multiplicity
 _atom_site_fract_x
 _atom_site_fract_y
 _atom_site_fract_z
 _atom_site_occupancy
  Lu  Lu0  1  0.50000000  0.00000000  0.00000000  1
  Lu  Lu1  1  0.50000000  0.00000000  0.50000000  1
  Lu  Lu2  1  0.00000000  0.50000000  0.00000000  1
  Lu  Lu3  1  0.00000000  0.50000000  0.50000000  1
  Tl  Tl4  1  0.98326500  0.05160500  0.25000000  1
  Tl  Tl5  1  0.48326500  0.44839500  0.75000000  1
  Tl  Tl6  1  0.51673500  0.55160500  0.25000000  1
  Tl  Tl7  1  0.01673500  0.94839500  0.75000000  1
  O  O8  1  0.62664800  0.08119700  0.75000000  1
  O  O9  1  0.17803600  0.18145500  0.57227100  1
  O  O10  1  0.17803600  0.18145500  0.92772900  1
  O  O11  1  0.67803600  0.31854500  0.42772900  1
  O  O12  1  0.67803600  0.31854500  0.07227100  1
  O  O13  1  0.12664800  0.41880300  0.25000000  1
  O  O14  1  0.87335200  0.58119700  0.75000000  1
  O  O15  1  0.32196400  0.68145500  0.57227100  1
  O  O16  1  0.32196400  0.68145500  0.92772900  1
  O  O17  1  0.82196400  0.81854500  0.07227100  1
  O  O18  1  0.82196400  0.81854500  0.42772900  1
  O  O19  1  0.37335200  0.91880300  0.25000000  1
