# generated using pymatgen
data_YbGeO3
_symmetry_space_group_name_H-M   'P 1'
_cell_length_a   5.20112015
_cell_length_b   5.28918566
_cell_length_c   7.40389754
_cell_angle_alpha   90.00000000
_cell_angle_beta   90.00000000
_cell_angle_gamma   90.00000000
_symmetry_Int_Tables_number   1
_chemical_formula_structural   YbGeO3
_chemical_formula_sum   'Yb4 Ge4 O12'
_cell_volume   203.67892692
_cell_formula_units_Z   4
loop_
 _symmetry_equiv_pos_site_id
 _symmetry_equiv_pos_as_xyz
  1  'x, y, z'
loop_
 _atom_site_type_symbol
 _atom_site_label
 _atom_site_symmetry_multiplicity
 _atom_site_fract_x
 _atom_site_fract_y
 _atom_site_fract_z
 _atom_site_occupancy
  Ge  Ge0  1  0.49999999  0.00000000  0.00000000  1
  Ge  Ge1  1  0.00000000  0.50000136  0.00000000  1
  Ge  Ge2  1  0.49999999  0.00000000  0.50000017  1
  Ge  Ge3  1  0.00000000  0.50000136  0.50000017  1
  O  O4  1  0.70733994  0.29160822  0.04079743  1
  O  O5  1  0.79266002  0.79160957  0.04079743  1
  O  O6  1  0.07806780  0.48406696  0.24999941  1
  O  O7  1  0.42193219  0.98406642  0.24999941  1
  O  O8  1  0.70733994  0.29160822  0.45920138  1
  O  O9  1  0.79266002  0.79160957  0.45920138  1
  O  O10  1  0.20734187  0.20839125  0.54079760  1
  O  O11  1  0.29266003  0.70839071  0.54079760  1
  O  O12  1  0.57806778  0.01593440  0.74999957  1
  O  O13  1  0.92193217  0.51593576  0.74999957  1
  O  O14  1  0.20734187  0.20839125  0.95920155  1
  O  O15  1  0.29266003  0.70839071  0.95920155  1
  Yb  Yb16  1  0.98779875  0.04915123  0.24999941  1
  Yb  Yb17  1  0.51220120  0.54915070  0.24999941  1
  Yb  Yb18  1  0.48779877  0.45085012  0.74999957  1
  Yb  Yb19  1  0.01220122  0.95084959  0.74999957  1
