# generated using pymatgen
data_HgOsO3
_symmetry_space_group_name_H-M   'P 1'
_cell_length_a   5.57815553
_cell_length_b   5.46686199
_cell_length_c   7.74754661
_cell_angle_alpha   90.00000000
_cell_angle_beta   90.00000000
_cell_angle_gamma   90.00000000
_symmetry_Int_Tables_number   1
_chemical_formula_structural   HgOsO3
_chemical_formula_sum   'Hg4 Os4 O12'
_cell_volume   236.26148370
_cell_formula_units_Z   4
loop_
 _symmetry_equiv_pos_site_id
 _symmetry_equiv_pos_as_xyz
  1  'x, y, z'
loop_
 _atom_site_type_symbol
 _atom_site_label
 _atom_site_symmetry_multiplicity
 _atom_site_fract_x
 _atom_site_fract_y
 _atom_site_fract_z
 _atom_site_occupancy
  Hg  Hg0  1  0.99930443  0.02417475  0.25000043  1
  Hg  Hg1  1  0.50069597  0.52417456  0.25000043  1
  Hg  Hg2  1  0.49930483  0.47582507  0.75000001  1
  Hg  Hg3  1  0.00069557  0.97582489  0.75000001  1
  O  O4  1  0.71447094  0.28769338  0.04822946  1
  O  O5  1  0.78552847  0.78769320  0.04822946  1
  O  O6  1  0.40586713  0.01700427  0.25000043  1
  O  O7  1  0.09413147  0.51700409  0.25000043  1
  O  O8  1  0.71447094  0.28769338  0.45177140  1
  O  O9  1  0.78552847  0.78769320  0.45177140  1
  O  O10  1  0.21447053  0.21230644  0.54822904  1
  O  O11  1  0.28552987  0.71230626  0.54822904  1
  O  O12  1  0.90586754  0.48299555  0.75000001  1
  O  O13  1  0.59413187  0.98299573  0.75000001  1
  O  O14  1  0.21447053  0.21230644  0.95177098  1
  O  O15  1  0.28552987  0.71230626  0.95177098  1
  Os  Os16  1  0.50000040  0.00000000  0.00000000  1
  Os  Os17  1  0.00000000  0.49999982  0.00000000  1
  Os  Os18  1  0.50000040  0.00000000  0.49999957  1
  Os  Os19  1  0.00000000  0.49999982  0.49999957  1
