# generated using pymatgen
data_SrTiO3
_symmetry_space_group_name_H-M   'P 1'
_cell_length_a   5.54813350
_cell_length_b   5.53309888
_cell_length_c   7.82826931
_cell_angle_alpha   90.00000000
_cell_angle_beta   90.00000000
_cell_angle_gamma   90.00000000
_symmetry_Int_Tables_number   1
_chemical_formula_structural   SrTiO3
_chemical_formula_sum   'Sr4 Ti4 O12'
_cell_volume   240.31511754
_cell_formula_units_Z   4
loop_
 _symmetry_equiv_pos_site_id
 _symmetry_equiv_pos_as_xyz
  1  'x, y, z'
loop_
 _atom_site_type_symbol
 _atom_site_label
 _atom_site_symmetry_multiplicity
 _atom_site_fract_x
 _atom_site_fract_y
 _atom_site_fract_z
 _atom_site_occupancy
  O  O0  1  0.73727858  0.26252920  0.01496116  1
  O  O1  1  0.76272137  0.76252749  0.01496116  1
  O  O2  1  0.02933419  0.49828678  0.24999906  1
  O  O3  1  0.47066640  0.99828688  0.24999906  1
  O  O4  1  0.73727858  0.26252920  0.48503952  1
  O  O5  1  0.76272137  0.76252749  0.48503952  1
  O  O6  1  0.23727980  0.23747091  0.51496184  1
  O  O7  1  0.26272079  0.73747281  0.51496184  1
  O  O8  1  0.52933478  0.00171513  0.74999975  1
  O  O9  1  0.97066698  0.50171343  0.74999975  1
  O  O10  1  0.23727980  0.23747091  0.98503893  1
  O  O11  1  0.26272079  0.73747281  0.98503893  1
  Sr  Sr12  1  0.99904229  0.00609604  0.24999906  1
  Sr  Sr13  1  0.50095766  0.50609614  0.24999906  1
  Sr  Sr14  1  0.49904171  0.49390587  0.74999975  1
  Sr  Sr15  1  0.00095708  0.99390416  0.74999975  1
  Ti  Ti16  1  0.50000059  0.00000000  0.00000000  1
  Ti  Ti17  1  0.00000000  0.50000010  0.00000000  1
  Ti  Ti18  1  0.50000059  0.00000000  0.50000068  1
  Ti  Ti19  1  0.00000000  0.50000010  0.50000068  1
