# generated using pymatgen
data_MnAlO3
_symmetry_space_group_name_H-M   'P 1'
_cell_length_a   4.79272316
_cell_length_b   5.07961379
_cell_length_c   7.34696296
_cell_angle_alpha   90.00000000
_cell_angle_beta   90.00000000
_cell_angle_gamma   90.00000000
_symmetry_Int_Tables_number   1
_chemical_formula_structural   MnAlO3
_chemical_formula_sum   'Mn4 Al4 O12'
_cell_volume   178.86315492
_cell_formula_units_Z   4
loop_
 _symmetry_equiv_pos_site_id
 _symmetry_equiv_pos_as_xyz
  1  'x, y, z'
loop_
 _atom_site_type_symbol
 _atom_site_label
 _atom_site_symmetry_multiplicity
 _atom_site_fract_x
 _atom_site_fract_y
 _atom_site_fract_z
 _atom_site_occupancy
  Al  Al0  1  0.49999967  0.00000000  0.00000000  1
  Al  Al1  1  0.00000000  0.49999864  0.00000000  1
  Al  Al2  1  0.49999967  0.00000000  0.49999980  1
  Al  Al3  1  0.00000000  0.49999864  0.49999980  1
  Mn  Mn4  1  0.97966226  0.07565339  0.24999990  1
  Mn  Mn5  1  0.52033884  0.57565597  0.24999990  1
  Mn  Mn6  1  0.47966050  0.42434525  0.74999970  1
  Mn  Mn7  1  0.02033917  0.92434587  0.74999970  1
  O  O8  1  0.69538546  0.29861129  0.07388359  1
  O  O9  1  0.80461564  0.79861387  0.07388359  1
  O  O10  1  0.14326093  0.43775178  0.24999990  1
  O  O11  1  0.35673665  0.93775240  0.24999990  1
  O  O12  1  0.69538546  0.29861129  0.42611485  1
  O  O13  1  0.80461564  0.79861387  0.42611485  1
  O  O14  1  0.19538579  0.20138736  0.57388475  1
  O  O15  1  0.30461388  0.70138797  0.57388475  1
  O  O16  1  0.64326269  0.06224686  0.74999970  1
  O  O17  1  0.85673632  0.56224944  0.74999970  1
  O  O18  1  0.19538579  0.20138736  0.92611465  1
  O  O19  1  0.30461388  0.70138797  0.92611465  1
