# generated using pymatgen
data_TiCrO3
_symmetry_space_group_name_H-M   'P 1'
_cell_length_a   5.11803400
_cell_length_b   5.39320400
_cell_length_c   7.61414500
_cell_angle_alpha   90.00000000
_cell_angle_beta   90.00000000
_cell_angle_gamma   90.00000000
_symmetry_Int_Tables_number   1
_chemical_formula_structural   TiCrO3
_chemical_formula_sum   'Ti4 Cr4 O12'
_cell_volume   210.17020975
_cell_formula_units_Z   4
loop_
 _symmetry_equiv_pos_site_id
 _symmetry_equiv_pos_as_xyz
  1  'x, y, z'
loop_
 _atom_site_type_symbol
 _atom_site_label
 _atom_site_symmetry_multiplicity
 _atom_site_fract_x
 _atom_site_fract_y
 _atom_site_fract_z
 _atom_site_occupancy
  Ti  Ti0  1  0.50000000  0.50000000  0.00000000  1
  Ti  Ti1  1  0.50000000  0.50000000  0.50000000  1
  Ti  Ti2  1  0.00000000  0.00000000  0.00000000  1
  Ti  Ti3  1  0.00000000  0.00000000  0.50000000  1
  Cr  Cr4  1  0.51086500  0.92238000  0.75000000  1
  Cr  Cr5  1  0.98913500  0.42238000  0.75000000  1
  Cr  Cr6  1  0.01086500  0.57762000  0.25000000  1
  Cr  Cr7  1  0.48913500  0.07762000  0.25000000  1
  O  O8  1  0.63183700  0.44609500  0.25000000  1
  O  O9  1  0.69695500  0.20528800  0.57011500  1
  O  O10  1  0.69695500  0.20528800  0.92988500  1
  O  O11  1  0.80304500  0.70528800  0.57011500  1
  O  O12  1  0.80304500  0.70528800  0.92988500  1
  O  O13  1  0.86816300  0.94609500  0.25000000  1
  O  O14  1  0.13183700  0.05390500  0.75000000  1
  O  O15  1  0.19695500  0.29471200  0.07011500  1
  O  O16  1  0.19695500  0.29471200  0.42988500  1
  O  O17  1  0.30304500  0.79471200  0.07011500  1
  O  O18  1  0.30304500  0.79471200  0.42988500  1
  O  O19  1  0.36816300  0.55390500  0.75000000  1
