# generated using pymatgen
data_TiCrO3
_symmetry_space_group_name_H-M   'P 1'
_cell_length_a   4.89378953
_cell_length_b   5.31253880
_cell_length_c   7.39162325
_cell_angle_alpha   90.00000000
_cell_angle_beta   90.00000000
_cell_angle_gamma   90.00000000
_symmetry_Int_Tables_number   1
_chemical_formula_structural   TiCrO3
_chemical_formula_sum   'Ti4 Cr4 O12'
_cell_volume   192.17072382
_cell_formula_units_Z   4
loop_
 _symmetry_equiv_pos_site_id
 _symmetry_equiv_pos_as_xyz
  1  'x, y, z'
loop_
 _atom_site_type_symbol
 _atom_site_label
 _atom_site_symmetry_multiplicity
 _atom_site_fract_x
 _atom_site_fract_y
 _atom_site_fract_z
 _atom_site_occupancy
  Cr  Cr0  1  0.49999903  0.00000000  0.00000000  1
  Cr  Cr1  1  0.00000000  0.50000011  0.00000000  1
  Cr  Cr2  1  0.49999903  0.00000000  0.49999978  1
  Cr  Cr3  1  0.00000000  0.50000011  0.49999978  1
  O  O4  1  0.68109386  0.31063491  0.08013937  1
  O  O5  1  0.81890526  0.81063502  0.08013937  1
  O  O6  1  0.15876858  0.42596959  0.24999921  1
  O  O7  1  0.34123045  0.92596971  0.24999921  1
  O  O8  1  0.68109386  0.31063491  0.41986041  1
  O  O9  1  0.81890526  0.81063502  0.41986041  1
  O  O10  1  0.18109279  0.18936332  0.58013915  1
  O  O11  1  0.31890624  0.68936344  0.58013915  1
  O  O12  1  0.65876965  0.07403052  0.75000035  1
  O  O13  1  0.84122948  0.57403063  0.75000035  1
  O  O14  1  0.18109279  0.18936332  0.91986019  1
  O  O15  1  0.31890624  0.68936344  0.91986019  1
  Ti  Ti16  1  0.96029058  0.08292081  0.24999921  1
  Ti  Ti17  1  0.53970854  0.58291904  0.24999921  1
  Ti  Ti18  1  0.46029156  0.41708119  0.75000035  1
  Ti  Ti19  1  0.03970747  0.91708130  0.75000035  1
