# generated using pymatgen
data_BaDyO3
_symmetry_space_group_name_H-M   'P 1'
_cell_length_a   6.17666223
_cell_length_b   6.19948304
_cell_length_c   8.74292700
_cell_angle_alpha   90.00000000
_cell_angle_beta   90.00000000
_cell_angle_gamma   90.00000000
_symmetry_Int_Tables_number   1
_chemical_formula_structural   BaDyO3
_chemical_formula_sum   'Ba4 Dy4 O12'
_cell_volume   334.78514634
_cell_formula_units_Z   4
loop_
 _symmetry_equiv_pos_site_id
 _symmetry_equiv_pos_as_xyz
  1  'x, y, z'
loop_
 _atom_site_type_symbol
 _atom_site_label
 _atom_site_symmetry_multiplicity
 _atom_site_fract_x
 _atom_site_fract_y
 _atom_site_fract_z
 _atom_site_occupancy
  Ba  Ba0  1  0.99488037  0.02584248  0.24999980  1
  Ba  Ba1  1  0.50511909  0.52584223  0.24999980  1
  Ba  Ba2  1  0.49488055  0.47415728  0.74999940  1
  Ba  Ba3  1  0.00511927  0.97415865  0.74999940  1
  Dy  Dy4  1  0.49999982  0.00000000  0.00000000  1
  Dy  Dy5  1  0.00000000  0.50000137  0.00000000  1
  Dy  Dy6  1  0.49999982  0.00000000  0.49999960  1
  Dy  Dy7  1  0.00000000  0.50000137  0.49999960  1
  O  O8  1  0.71703937  0.28246226  0.03896864  1
  O  O9  1  0.78296009  0.78246363  0.03896864  1
  O  O10  1  0.07419056  0.48080783  0.24999980  1
  O  O11  1  0.42580926  0.98080759  0.24999980  1
  O  O12  1  0.71703937  0.28246226  0.46103324  1
  O  O13  1  0.78296009  0.78246363  0.46103324  1
  O  O14  1  0.21703955  0.21753588  0.53896824  1
  O  O15  1  0.28296027  0.71753725  0.53896824  1
  O  O16  1  0.57419037  0.01919354  0.74999940  1
  O  O17  1  0.92580908  0.51919168  0.74999940  1
  O  O18  1  0.21703955  0.21753588  0.96103284  1
  O  O19  1  0.28296027  0.71753725  0.96103284  1
