# generated using pymatgen
data_BaPdO3
_symmetry_space_group_name_H-M   'P 1'
_cell_length_a   5.79254955
_cell_length_b   5.73319436
_cell_length_c   8.21894940
_cell_angle_alpha   90.00000000
_cell_angle_beta   90.00000000
_cell_angle_gamma   90.00000000
_symmetry_Int_Tables_number   1
_chemical_formula_structural   BaPdO3
_chemical_formula_sum   'Ba4 Pd4 O12'
_cell_volume   272.94976770
_cell_formula_units_Z   4
loop_
 _symmetry_equiv_pos_site_id
 _symmetry_equiv_pos_as_xyz
  1  'x, y, z'
loop_
 _atom_site_type_symbol
 _atom_site_label
 _atom_site_symmetry_multiplicity
 _atom_site_fract_x
 _atom_site_fract_y
 _atom_site_fract_z
 _atom_site_occupancy
  Ba  Ba0  1  0.99805620  0.01937663  0.25000032  1
  Ba  Ba1  1  0.50194305  0.51937538  0.25000032  1
  Ba  Ba2  1  0.49805530  0.48062386  0.74999975  1
  Ba  Ba3  1  0.00194560  0.98062610  0.74999975  1
  O  O4  1  0.71843667  0.28185160  0.02444595  1
  O  O5  1  0.78156258  0.78185209  0.02444595  1
  O  O6  1  0.45050974  0.00350241  0.25000032  1
  O  O7  1  0.04949116  0.50350290  0.25000032  1
  O  O8  1  0.71843667  0.28185160  0.47555470  1
  O  O9  1  0.78156258  0.78185209  0.47555470  1
  O  O10  1  0.21843749  0.21814889  0.52444537  1
  O  O11  1  0.28156168  0.71814764  0.52444537  1
  O  O12  1  0.95050892  0.49649808  0.74999975  1
  O  O13  1  0.54949206  0.99649857  0.74999975  1
  O  O14  1  0.21843749  0.21814889  0.97555413  1
  O  O15  1  0.28156168  0.71814764  0.97555413  1
  Pd  Pd16  1  0.50000090  0.00000000  0.00000000  1
  Pd  Pd17  1  0.00000000  0.50000049  0.00000000  1
  Pd  Pd18  1  0.50000090  0.00000000  0.49999943  1
  Pd  Pd19  1  0.00000000  0.50000049  0.49999943  1
