# generated using pymatgen
data_DyAlO3
_symmetry_space_group_name_H-M   'P 1'
_cell_length_a   5.21945800
_cell_length_b   5.37573800
_cell_length_c   7.44872500
_cell_angle_alpha   90.00000000
_cell_angle_beta   90.00000000
_cell_angle_gamma   90.00000000
_symmetry_Int_Tables_number   1
_chemical_formula_structural   DyAlO3
_chemical_formula_sum   'Dy4 Al4 O12'
_cell_volume   208.99959388
_cell_formula_units_Z   4
loop_
 _symmetry_equiv_pos_site_id
 _symmetry_equiv_pos_as_xyz
  1  'x, y, z'
loop_
 _atom_site_type_symbol
 _atom_site_label
 _atom_site_symmetry_multiplicity
 _atom_site_fract_x
 _atom_site_fract_y
 _atom_site_fract_z
 _atom_site_occupancy
  Dy  Dy0  1  0.01336900  0.94611900  0.75000000  1
  Dy  Dy1  1  0.48663100  0.44611900  0.75000000  1
  Dy  Dy2  1  0.51336900  0.55388100  0.25000000  1
  Dy  Dy3  1  0.98663100  0.05388100  0.25000000  1
  Al  Al4  1  0.00000000  0.50000000  0.00000000  1
  Al  Al5  1  0.00000000  0.50000000  0.50000000  1
  Al  Al6  1  0.50000000  0.00000000  0.00000000  1
  Al  Al7  1  0.50000000  0.00000000  0.50000000  1
  O  O8  1  0.08755600  0.47702800  0.25000000  1
  O  O9  1  0.20679400  0.20670400  0.54624500  1
  O  O10  1  0.20679400  0.20670400  0.95375500  1
  O  O11  1  0.29320600  0.70670400  0.54624500  1
  O  O12  1  0.29320600  0.70670400  0.95375500  1
  O  O13  1  0.41244400  0.97702800  0.25000000  1
  O  O14  1  0.58755600  0.02297200  0.75000000  1
  O  O15  1  0.70679400  0.29329600  0.04624500  1
  O  O16  1  0.70679400  0.29329600  0.45375500  1
  O  O17  1  0.79320600  0.79329600  0.04624500  1
  O  O18  1  0.79320600  0.79329600  0.45375500  1
  O  O19  1  0.91244400  0.52297200  0.75000000  1
