# generated using pymatgen
data_MgVO3
_symmetry_space_group_name_H-M   'P 1'
_cell_length_a   5.09273400
_cell_length_b   5.24987700
_cell_length_c   7.44973500
_cell_angle_alpha   90.00000000
_cell_angle_beta   90.00000000
_cell_angle_gamma   90.00000000
_symmetry_Int_Tables_number   1
_chemical_formula_structural   MgVO3
_chemical_formula_sum   'Mg4 V4 O12'
_cell_volume   199.17780675
_cell_formula_units_Z   4
loop_
 _symmetry_equiv_pos_site_id
 _symmetry_equiv_pos_as_xyz
  1  'x, y, z'
loop_
 _atom_site_type_symbol
 _atom_site_label
 _atom_site_symmetry_multiplicity
 _atom_site_fract_x
 _atom_site_fract_y
 _atom_site_fract_z
 _atom_site_occupancy
  Mg  Mg0  1  0.49127800  0.55496100  0.75000000  1
  Mg  Mg1  1  0.99127800  0.94503900  0.25000000  1
  Mg  Mg2  1  0.00872200  0.05496100  0.75000000  1
  Mg  Mg3  1  0.50872200  0.44503900  0.25000000  1
  V  V4  1  0.00000000  0.50000000  0.50000000  1
  V  V5  1  0.50000000  0.00000000  0.50000000  1
  V  V6  1  0.50000000  0.00000000  0.00000000  1
  V  V7  1  0.00000000  0.50000000  0.00000000  1
  O  O8  1  0.37533200  0.06152400  0.25000000  1
  O  O9  1  0.87533200  0.43847600  0.75000000  1
  O  O10  1  0.12466800  0.56152400  0.25000000  1
  O  O11  1  0.62466800  0.93847600  0.75000000  1
  O  O12  1  0.17740500  0.80607700  0.93570600  1
  O  O13  1  0.67740500  0.69392300  0.06429400  1
  O  O14  1  0.32259500  0.30607700  0.56429400  1
  O  O15  1  0.82259500  0.19392300  0.43570600  1
  O  O16  1  0.17740500  0.80607700  0.56429400  1
  O  O17  1  0.67740500  0.69392300  0.43570600  1
  O  O18  1  0.82259500  0.19392300  0.06429400  1
  O  O19  1  0.32259500  0.30607700  0.93570600  1
