# generated using pymatgen
data_LuSiO3
_symmetry_space_group_name_H-M   'P 1'
_cell_length_a   5.10253688
_cell_length_b   5.59128619
_cell_length_c   7.46024713
_cell_angle_alpha   90.00000000
_cell_angle_beta   90.00000000
_cell_angle_gamma   90.00000000
_symmetry_Int_Tables_number   1
_chemical_formula_structural   LuSiO3
_chemical_formula_sum   'Lu4 Si4 O12'
_cell_volume   212.83894065
_cell_formula_units_Z   4
loop_
 _symmetry_equiv_pos_site_id
 _symmetry_equiv_pos_as_xyz
  1  'x, y, z'
loop_
 _atom_site_type_symbol
 _atom_site_label
 _atom_site_symmetry_multiplicity
 _atom_site_fract_x
 _atom_site_fract_y
 _atom_site_fract_z
 _atom_site_occupancy
  Lu  Lu0  1  0.97595963  0.07864380  0.24999976  1
  Lu  Lu1  1  0.52403933  0.57864325  0.24999976  1
  Lu  Lu2  1  0.47595932  0.42135565  0.75000062  1
  Lu  Lu3  1  0.02404098  0.92135688  0.75000062  1
  O  O4  1  0.69318460  0.31185490  0.05791363  1
  O  O5  1  0.80681631  0.81185614  0.05791363  1
  O  O6  1  0.11839797  0.45733306  0.24999976  1
  O  O7  1  0.38160234  0.95733250  0.24999976  1
  O  O8  1  0.69318460  0.31185490  0.44208857  1
  O  O9  1  0.80681631  0.81185614  0.44208857  1
  O  O10  1  0.19318234  0.18814633  0.55791047  1
  O  O11  1  0.30681797  0.68814399  0.55791047  1
  O  O12  1  0.61839631  0.04266639  0.75000062  1
  O  O13  1  0.88160460  0.54266584  0.75000062  1
  O  O14  1  0.19318234  0.18814633  0.94208943  1
  O  O15  1  0.30681797  0.68814399  0.94208943  1
  Si  Si16  1  0.50000031  0.00000000  0.00000000  1
  Si  Si17  1  0.00000000  0.50000123  0.00000000  1
  Si  Si18  1  0.50000031  0.00000000  0.50000086  1
  Si  Si19  1  0.00000000  0.50000123  0.50000086  1
