# generated using pymatgen
data_MgCrO3
_symmetry_space_group_name_H-M   'P 1'
_cell_length_a   5.02308500
_cell_length_b   5.22871100
_cell_length_c   7.37066600
_cell_angle_alpha   90.00000000
_cell_angle_beta   90.00000000
_cell_angle_gamma   90.00000000
_symmetry_Int_Tables_number   1
_chemical_formula_structural   MgCrO3
_chemical_formula_sum   'Mg4 Cr4 O12'
_cell_volume   193.58508667
_cell_formula_units_Z   4
loop_
 _symmetry_equiv_pos_site_id
 _symmetry_equiv_pos_as_xyz
  1  'x, y, z'
loop_
 _atom_site_type_symbol
 _atom_site_label
 _atom_site_symmetry_multiplicity
 _atom_site_fract_x
 _atom_site_fract_y
 _atom_site_fract_z
 _atom_site_occupancy
  Mg  Mg0  1  0.48909100  0.06019700  0.75000000  1
  Mg  Mg1  1  0.98909100  0.43980300  0.25000000  1
  Mg  Mg2  1  0.01090900  0.56019700  0.75000000  1
  Mg  Mg3  1  0.51090900  0.93980300  0.25000000  1
  Cr  Cr4  1  0.00000000  0.00000000  0.50000000  1
  Cr  Cr5  1  0.50000000  0.50000000  0.50000000  1
  Cr  Cr6  1  0.50000000  0.50000000  0.00000000  1
  Cr  Cr7  1  0.00000000  0.00000000  0.00000000  1
  O  O8  1  0.37659600  0.55526500  0.25000000  1
  O  O9  1  0.87659600  0.94473500  0.75000000  1
  O  O10  1  0.12340400  0.05526500  0.25000000  1
  O  O11  1  0.62340400  0.44473500  0.75000000  1
  O  O12  1  0.18298200  0.31340800  0.93575700  1
  O  O13  1  0.68298200  0.18659200  0.06424300  1
  O  O14  1  0.31701800  0.81340800  0.56424300  1
  O  O15  1  0.81701800  0.68659200  0.43575700  1
  O  O16  1  0.18298200  0.31340800  0.56424300  1
  O  O17  1  0.68298200  0.18659200  0.43575700  1
  O  O18  1  0.81701800  0.68659200  0.06424300  1
  O  O19  1  0.31701800  0.81340800  0.93575700  1
