# generated using pymatgen
data_NdGeO3
_symmetry_space_group_name_H-M   'P 1'
_cell_length_a   5.50039945
_cell_length_b   5.83503609
_cell_length_c   7.93478866
_cell_angle_alpha   90.00000000
_cell_angle_beta   90.00000000
_cell_angle_gamma   90.00000000
_symmetry_Int_Tables_number   1
_chemical_formula_structural   NdGeO3
_chemical_formula_sum   'Nd4 Ge4 O12'
_cell_volume   254.66727420
_cell_formula_units_Z   4
loop_
 _symmetry_equiv_pos_site_id
 _symmetry_equiv_pos_as_xyz
  1  'x, y, z'
loop_
 _atom_site_type_symbol
 _atom_site_label
 _atom_site_symmetry_multiplicity
 _atom_site_fract_x
 _atom_site_fract_y
 _atom_site_fract_z
 _atom_site_occupancy
  Ge  Ge0  1  0.50000005  0.00000000  0.00000000  1
  Ge  Ge1  1  0.00000000  0.50000034  0.00000000  1
  Ge  Ge2  1  0.50000005  0.00000000  0.50000071  1
  Ge  Ge3  1  0.00000000  0.50000034  0.50000071  1
  Nd  Nd4  1  0.98097966  0.06596532  0.24999910  1
  Nd  Nd5  1  0.51901867  0.56596565  0.24999910  1
  Nd  Nd6  1  0.48097961  0.43403502  0.74999981  1
  Nd  Nd7  1  0.01902044  0.93403535  0.74999981  1
  O  O8  1  0.69783477  0.30114981  0.05465804  1
  O  O9  1  0.80216538  0.80115014  0.05465804  1
  O  O10  1  0.10556506  0.46519507  0.24999910  1
  O  O11  1  0.39443317  0.96519540  0.24999910  1
  O  O12  1  0.69783477  0.30114981  0.44534141  1
  O  O13  1  0.80216538  0.80115014  0.44534141  1
  O  O14  1  0.19783472  0.19885053  0.55465876  1
  O  O15  1  0.30216533  0.69884915  0.55465876  1
  O  O16  1  0.60556511  0.03480527  0.74999981  1
  O  O17  1  0.89443322  0.53480389  0.74999981  1
  O  O18  1  0.19783472  0.19885053  0.94534213  1
  O  O19  1  0.30216533  0.69884915  0.94534213  1
