# generated using pymatgen
data_YSbO3
_symmetry_space_group_name_H-M   'P 1'
_cell_length_a   5.73709600
_cell_length_b   6.04461400
_cell_length_c   8.55933700
_cell_angle_alpha   90.00000000
_cell_angle_beta   90.00000000
_cell_angle_gamma   90.00000000
_symmetry_Int_Tables_number   1
_chemical_formula_structural   YSbO3
_chemical_formula_sum   'Y4 Sb4 O12'
_cell_volume   296.82523179
_cell_formula_units_Z   4
loop_
 _symmetry_equiv_pos_site_id
 _symmetry_equiv_pos_as_xyz
  1  'x, y, z'
loop_
 _atom_site_type_symbol
 _atom_site_label
 _atom_site_symmetry_multiplicity
 _atom_site_fract_x
 _atom_site_fract_y
 _atom_site_fract_z
 _atom_site_occupancy
  Y  Y0  1  0.51889600  0.44197400  0.25000000  1
  Y  Y1  1  0.01889600  0.05802600  0.75000000  1
  Y  Y2  1  0.98110400  0.94197400  0.25000000  1
  Y  Y3  1  0.48110400  0.55802600  0.75000000  1
  Sb  Sb4  1  0.50000000  0.00000000  0.00000000  1
  Sb  Sb5  1  0.00000000  0.50000000  0.00000000  1
  Sb  Sb6  1  0.00000000  0.50000000  0.50000000  1
  Sb  Sb7  1  0.50000000  0.00000000  0.50000000  1
  O  O8  1  0.17897500  0.81611200  0.91904400  1
  O  O9  1  0.67897500  0.68388800  0.08095600  1
  O  O10  1  0.32102500  0.31611200  0.58095600  1
  O  O11  1  0.82102500  0.18388800  0.41904400  1
  O  O12  1  0.82102500  0.18388800  0.08095600  1
  O  O13  1  0.32102500  0.31611200  0.91904400  1
  O  O14  1  0.67897500  0.68388800  0.41904400  1
  O  O15  1  0.17897500  0.81611200  0.58095600  1
  O  O16  1  0.66330100  0.90575400  0.75000000  1
  O  O17  1  0.16330100  0.59424600  0.25000000  1
  O  O18  1  0.83669900  0.40575400  0.75000000  1
  O  O19  1  0.33669900  0.09424600  0.25000000  1
