# generated using pymatgen
data_NbFeO3
_symmetry_space_group_name_H-M   'P 1'
_cell_length_a   5.28895190
_cell_length_b   5.44779530
_cell_length_c   7.65431320
_cell_angle_alpha   90.00000000
_cell_angle_beta   90.00000000
_cell_angle_gamma   90.00000000
_symmetry_Int_Tables_number   1
_chemical_formula_structural   NbFeO3
_chemical_formula_sum   'Nb4 Fe4 O12'
_cell_volume   220.54470043
_cell_formula_units_Z   4
loop_
 _symmetry_equiv_pos_site_id
 _symmetry_equiv_pos_as_xyz
  1  'x, y, z'
loop_
 _atom_site_type_symbol
 _atom_site_label
 _atom_site_symmetry_multiplicity
 _atom_site_fract_x
 _atom_site_fract_y
 _atom_site_fract_z
 _atom_site_occupancy
  Fe  Fe0  1  0.99638645  0.04768535  0.25000022  1
  Fe  Fe1  1  0.50361207  0.54768394  0.25000022  1
  Fe  Fe2  1  0.49638757  0.45231509  0.75000067  1
  Fe  Fe3  1  0.00361319  0.95231552  0.75000067  1
  Nb  Nb4  1  0.50000077  0.00000000  0.00000000  1
  Nb  Nb5  1  0.00000000  0.50000043  0.00000000  1
  Nb  Nb6  1  0.50000077  0.00000000  0.49999914  1
  Nb  Nb7  1  0.00000000  0.50000043  0.49999914  1
  O  O8  1  0.66614143  0.32356576  0.06228253  1
  O  O9  1  0.83385897  0.82356435  0.06228253  1
  O  O10  1  0.12686824  0.42808510  0.25000022  1
  O  O11  1  0.37313064  0.92808553  0.25000022  1
  O  O12  1  0.66614143  0.32356576  0.43771661  1
  O  O13  1  0.83385897  0.82356435  0.43771661  1
  O  O14  1  0.16614256  0.17643468  0.56228428  1
  O  O15  1  0.33385821  0.67643511  0.56228428  1
  O  O16  1  0.62686900  0.07191533  0.75000067  1
  O  O17  1  0.87313140  0.57191393  0.75000067  1
  O  O18  1  0.16614256  0.17643468  0.93771574  1
  O  O19  1  0.33385821  0.67643511  0.93771574  1
