# generated using pymatgen
data_NdInO3
_symmetry_space_group_name_H-M   'P 1'
_cell_length_a   5.68167600
_cell_length_b   6.00380800
_cell_length_c   8.24042100
_cell_angle_alpha   90.00000000
_cell_angle_beta   90.00000000
_cell_angle_gamma   90.00000000
_symmetry_Int_Tables_number   1
_chemical_formula_structural   NdInO3
_chemical_formula_sum   'Nd4 In4 O12'
_cell_volume   281.09470164
_cell_formula_units_Z   4
loop_
 _symmetry_equiv_pos_site_id
 _symmetry_equiv_pos_as_xyz
  1  'x, y, z'
loop_
 _atom_site_type_symbol
 _atom_site_label
 _atom_site_symmetry_multiplicity
 _atom_site_fract_x
 _atom_site_fract_y
 _atom_site_fract_z
 _atom_site_occupancy
  Nd  Nd0  1  0.98224900  0.06283300  0.25000000  1
  Nd  Nd1  1  0.48224900  0.43716700  0.75000000  1
  Nd  Nd2  1  0.51775100  0.56283300  0.25000000  1
  Nd  Nd3  1  0.01775100  0.93716700  0.75000000  1
  In  In4  1  0.50000000  0.00000000  0.00000000  1
  In  In5  1  0.50000000  0.00000000  0.50000000  1
  In  In6  1  0.00000000  0.50000000  0.00000000  1
  In  In7  1  0.00000000  0.50000000  0.50000000  1
  O  O8  1  0.62689400  0.05799700  0.75000000  1
  O  O9  1  0.18742900  0.19059000  0.56399100  1
  O  O10  1  0.18742900  0.19059000  0.93600900  1
  O  O11  1  0.68742900  0.30941000  0.06399100  1
  O  O12  1  0.68742900  0.30941000  0.43600900  1
  O  O13  1  0.12689400  0.44200300  0.25000000  1
  O  O14  1  0.87310600  0.55799700  0.75000000  1
  O  O15  1  0.31257100  0.69059000  0.93600900  1
  O  O16  1  0.31257100  0.69059000  0.56399100  1
  O  O17  1  0.81257100  0.80941000  0.06399100  1
  O  O18  1  0.81257100  0.80941000  0.43600900  1
  O  O19  1  0.37310600  0.94200300  0.25000000  1
