# generated using pymatgen
data_NdInO3
_symmetry_space_group_name_H-M   'P 1'
_cell_length_a   5.62900000
_cell_length_b   8.13000000
_cell_length_c   5.90400000
_cell_angle_alpha   90.00000000
_cell_angle_beta   90.00000000
_cell_angle_gamma   90.00000000
_symmetry_Int_Tables_number   1
_chemical_formula_structural   NdInO3
_chemical_formula_sum   'Nd4 In4 O12'
_cell_volume   270.18929808
_cell_formula_units_Z   4
loop_
 _symmetry_equiv_pos_site_id
 _symmetry_equiv_pos_as_xyz
  1  'x, y, z'
loop_
 _atom_site_type_symbol
 _atom_site_label
 _atom_site_symmetry_multiplicity
 _atom_site_fract_x
 _atom_site_fract_y
 _atom_site_fract_z
 _atom_site_occupancy
  In  In0  1  0.00000000  0.00000000  0.00000000  1
  In  In1  1  0.00000000  0.50000000  0.00000000  1
  In  In2  1  0.50000000  0.00000000  0.50000000  1
  In  In3  1  0.50000000  0.50000000  0.50000000  1
  Nd  Nd4  1  0.51543344  0.75000000  0.96941175  1
  Nd  Nd5  1  0.01543344  0.75000000  0.53058825  1
  Nd  Nd6  1  0.98456656  0.25000000  0.46941175  1
  Nd  Nd7  1  0.48456656  0.25000000  0.03058825  1
  O  O8  1  0.87592798  0.75000000  0.97812807  1
  O  O9  1  0.62428848  0.50336434  0.83494588  1
  O  O10  1  0.62428848  0.99663566  0.83494588  1
  O  O11  1  0.12428848  0.50336434  0.66505412  1
  O  O12  1  0.12428848  0.99663566  0.66505412  1
  O  O13  1  0.37592798  0.75000000  0.52187193  1
  O  O14  1  0.62407202  0.25000000  0.47812807  1
  O  O15  1  0.87571152  0.00336434  0.33494588  1
  O  O16  1  0.87571152  0.49663566  0.33494588  1
  O  O17  1  0.37571152  0.00336434  0.16505412  1
  O  O18  1  0.37571152  0.49663566  0.16505412  1
  O  O19  1  0.12407202  0.25000000  0.02187193  1
