# generated using pymatgen
data_SnHgO3
_symmetry_space_group_name_H-M   'P 1'
_cell_length_a   5.60516338
_cell_length_b   5.66495635
_cell_length_c   8.05732018
_cell_angle_alpha   90.00000000
_cell_angle_beta   90.00000000
_cell_angle_gamma   90.00000000
_symmetry_Int_Tables_number   1
_chemical_formula_structural   SnHgO3
_chemical_formula_sum   'Sn4 Hg4 O12'
_cell_volume   255.84413487
_cell_formula_units_Z   4
loop_
 _symmetry_equiv_pos_site_id
 _symmetry_equiv_pos_as_xyz
  1  'x, y, z'
loop_
 _atom_site_type_symbol
 _atom_site_label
 _atom_site_symmetry_multiplicity
 _atom_site_fract_x
 _atom_site_fract_y
 _atom_site_fract_z
 _atom_site_occupancy
  Hg  Hg0  1  0.99316998  0.03372135  0.24999999  1
  Hg  Hg1  1  0.50683090  0.53372168  0.24999999  1
  Hg  Hg2  1  0.49316850  0.46627897  0.74999998  1
  Hg  Hg3  1  0.00682942  0.96627929  0.74999998  1
  O  O4  1  0.69999030  0.29765101  0.05622961  1
  O  O5  1  0.80000880  0.79765134  0.05622961  1
  O  O6  1  0.10396486  0.45634067  0.24999999  1
  O  O7  1  0.39603484  0.95633923  0.24999999  1
  O  O8  1  0.69999030  0.29765101  0.44377038  1
  O  O9  1  0.80000880  0.79765134  0.44377038  1
  O  O10  1  0.19999060  0.20234931  0.55622960  1
  O  O11  1  0.30001088  0.70234963  0.55622960  1
  O  O12  1  0.60396455  0.04365965  0.74999998  1
  O  O13  1  0.89603454  0.54365997  0.74999998  1
  O  O14  1  0.19999060  0.20234931  0.94377161  1
  O  O15  1  0.30001088  0.70234963  0.94377161  1
  Sn  Sn16  1  0.49999970  0.00000000  0.00000000  1
  Sn  Sn17  1  0.00000000  0.50000032  0.00000000  1
  Sn  Sn18  1  0.49999970  0.00000000  0.49999999  1
  Sn  Sn19  1  0.00000000  0.50000032  0.49999999  1
