# generated using pymatgen
data_NaReO3
_symmetry_space_group_name_H-M   'P 1'
_cell_length_a   5.40683695
_cell_length_b   5.44593577
_cell_length_c   7.66949991
_cell_angle_alpha   90.00000000
_cell_angle_beta   90.00000000
_cell_angle_gamma   90.00000000
_symmetry_Int_Tables_number   1
_chemical_formula_structural   NaReO3
_chemical_formula_sum   'Na4 Re4 O12'
_cell_volume   225.83062417
_cell_formula_units_Z   4
loop_
 _symmetry_equiv_pos_site_id
 _symmetry_equiv_pos_as_xyz
  1  'x, y, z'
loop_
 _atom_site_type_symbol
 _atom_site_label
 _atom_site_symmetry_multiplicity
 _atom_site_fract_x
 _atom_site_fract_y
 _atom_site_fract_z
 _atom_site_occupancy
  Na  Na0  1  0.99636073  0.01755438  0.25000065  1
  Na  Na1  1  0.50363827  0.51755660  0.25000065  1
  Na  Na2  1  0.49636230  0.48244418  0.74999936  1
  Na  Na3  1  0.00363984  0.98244456  0.74999936  1
  O  O4  1  0.72404995  0.27537416  0.02413977  1
  O  O5  1  0.77594905  0.77537271  0.02413977  1
  O  O6  1  0.04742514  0.49490668  0.25000065  1
  O  O7  1  0.45257699  0.99490523  0.25000065  1
  O  O8  1  0.72404995  0.27537416  0.47585893  1
  O  O9  1  0.77594905  0.77537271  0.47585893  1
  O  O10  1  0.22405151  0.22462623  0.52414108  1
  O  O11  1  0.27595062  0.72462661  0.52414108  1
  O  O12  1  0.54742357  0.00509554  0.74999936  1
  O  O13  1  0.95257542  0.50509409  0.74999936  1
  O  O14  1  0.22405151  0.22462623  0.97585893  1
  O  O15  1  0.27595062  0.72462661  0.97585893  1
  Re  Re16  1  0.49999843  0.00000000  0.00000000  1
  Re  Re17  1  0.00000000  0.49999855  0.00000000  1
  Re  Re18  1  0.49999843  0.00000000  0.50000001  1
  Re  Re19  1  0.00000000  0.49999855  0.50000001  1
