# generated using pymatgen
data_RbDyI3
_symmetry_space_group_name_H-M   'P 1'
_cell_length_a   8.22963600
_cell_length_b   8.72661200
_cell_length_c   11.98210300
_cell_angle_alpha   90.00000000
_cell_angle_beta   90.00000000
_cell_angle_gamma   90.00000000
_symmetry_Int_Tables_number   1
_chemical_formula_structural   RbDyI3
_chemical_formula_sum   'Rb4 Dy4 I12'
_cell_volume   860.51677729
_cell_formula_units_Z   4
loop_
 _symmetry_equiv_pos_site_id
 _symmetry_equiv_pos_as_xyz
  1  'x, y, z'
loop_
 _atom_site_type_symbol
 _atom_site_label
 _atom_site_symmetry_multiplicity
 _atom_site_fract_x
 _atom_site_fract_y
 _atom_site_fract_z
 _atom_site_occupancy
  Rb  Rb0  1  0.02800500  0.42620900  0.25000000  1
  Rb  Rb1  1  0.97199500  0.57379100  0.75000000  1
  Rb  Rb2  1  0.52800500  0.07379100  0.75000000  1
  Rb  Rb3  1  0.47199500  0.92620900  0.25000000  1
  Dy  Dy4  1  0.00000000  0.00000000  0.00000000  1
  Dy  Dy5  1  0.50000000  0.50000000  0.00000000  1
  Dy  Dy6  1  0.00000000  0.00000000  0.50000000  1
  Dy  Dy7  1  0.50000000  0.50000000  0.50000000  1
  I  I8  1  0.29836400  0.20716200  0.04175600  1
  I  I9  1  0.70163600  0.79283800  0.95824400  1
  I  I10  1  0.79836400  0.29283800  0.95824400  1
  I  I11  1  0.70163600  0.79283800  0.54175600  1
  I  I12  1  0.20163600  0.70716200  0.04175600  1
  I  I13  1  0.29836400  0.20716200  0.45824400  1
  I  I14  1  0.20163600  0.70716200  0.45824400  1
  I  I15  1  0.79836400  0.29283800  0.54175600  1
  I  I16  1  0.58656500  0.51529600  0.25000000  1
  I  I17  1  0.41343500  0.48470400  0.75000000  1
  I  I18  1  0.08656500  0.98470400  0.75000000  1
  I  I19  1  0.91343500  0.01529600  0.25000000  1
