# generated using pymatgen
data_NaCrO3
_symmetry_space_group_name_H-M   'P 1'
_cell_length_a   5.15122107
_cell_length_b   5.22791249
_cell_length_c   7.39800676
_cell_angle_alpha   90.00000000
_cell_angle_beta   90.00000000
_cell_angle_gamma   90.00000000
_symmetry_Int_Tables_number   1
_chemical_formula_structural   NaCrO3
_chemical_formula_sum   'Na4 Cr4 O12'
_cell_volume   199.22930558
_cell_formula_units_Z   4
loop_
 _symmetry_equiv_pos_site_id
 _symmetry_equiv_pos_as_xyz
  1  'x, y, z'
loop_
 _atom_site_type_symbol
 _atom_site_label
 _atom_site_symmetry_multiplicity
 _atom_site_fract_x
 _atom_site_fract_y
 _atom_site_fract_z
 _atom_site_occupancy
  Cr  Cr0  1  0.49999990  0.00000000  0.00000000  1
  Cr  Cr1  1  0.00000000  0.50000072  0.00000000  1
  Cr  Cr2  1  0.49999990  0.00000000  0.49999954  1
  Cr  Cr3  1  0.00000000  0.50000072  0.49999954  1
  Na  Na4  1  0.99455836  0.02838609  0.24999977  1
  Na  Na5  1  0.50544327  0.52838681  0.24999977  1
  Na  Na6  1  0.49455847  0.47161463  0.75000067  1
  Na  Na7  1  0.00544143  0.97161343  0.75000067  1
  O  O8  1  0.72166967  0.29240160  0.03256147  1
  O  O9  1  0.77833196  0.79240232  0.03256147  1
  O  O10  1  0.06674340  0.48872471  0.24999977  1
  O  O11  1  0.43325650  0.98872351  0.24999977  1
  O  O12  1  0.72166967  0.29240160  0.46743942  1
  O  O13  1  0.77833196  0.79240232  0.46743942  1
  O  O14  1  0.22166783  0.20759720  0.53256102  1
  O  O15  1  0.27833012  0.70759601  0.53256102  1
  O  O16  1  0.56674524  0.01127601  0.75000067  1
  O  O17  1  0.93325639  0.51127673  0.75000067  1
  O  O18  1  0.22166783  0.20759720  0.96743897  1
  O  O19  1  0.27833012  0.70759601  0.96743897  1
