# generated using pymatgen
data_NaPdO3
_symmetry_space_group_name_H-M   'P 1'
_cell_length_a   5.27431105
_cell_length_b   5.45222289
_cell_length_c   7.54653372
_cell_angle_alpha   90.00000000
_cell_angle_beta   90.00000000
_cell_angle_gamma   90.00000000
_symmetry_Int_Tables_number   1
_chemical_formula_structural   NaPdO3
_chemical_formula_sum   'Na4 Pd4 O12'
_cell_volume   217.01355262
_cell_formula_units_Z   4
loop_
 _symmetry_equiv_pos_site_id
 _symmetry_equiv_pos_as_xyz
  1  'x, y, z'
loop_
 _atom_site_type_symbol
 _atom_site_label
 _atom_site_symmetry_multiplicity
 _atom_site_fract_x
 _atom_site_fract_y
 _atom_site_fract_z
 _atom_site_occupancy
  Na  Na0  1  0.97831166  0.07438251  0.24999955  1
  Na  Na1  1  0.52168709  0.57438224  0.24999955  1
  Na  Na2  1  0.47831271  0.42561540  0.74999996  1
  Na  Na3  1  0.02168624  0.92561513  0.74999996  1
  O  O4  1  0.68337267  0.31045503  0.05945379  1
  O  O5  1  0.81662798  0.81045476  0.05945379  1
  O  O6  1  0.12091816  0.47227526  0.24999955  1
  O  O7  1  0.37908079  0.97227683  0.24999955  1
  O  O8  1  0.68337267  0.31045503  0.44054663  1
  O  O9  1  0.81662798  0.81045476  0.44054663  1
  O  O10  1  0.18336992  0.18954471  0.55945288  1
  O  O11  1  0.31662903  0.68954444  0.55945288  1
  O  O12  1  0.62091901  0.02772447  0.74999996  1
  O  O13  1  0.87908164  0.52772421  0.74999996  1
  O  O14  1  0.18336992  0.18954471  0.94054572  1
  O  O15  1  0.31662903  0.68954444  0.94054572  1
  Pd  Pd16  1  0.49999895  0.00000000  0.00000000  1
  Pd  Pd17  1  0.00000000  0.49999974  0.00000000  1
  Pd  Pd18  1  0.49999895  0.00000000  0.50000042  1
  Pd  Pd19  1  0.00000000  0.49999974  0.50000042  1
