# generated using pymatgen
data_LiPrO3
_symmetry_space_group_name_H-M   'P 1'
_cell_length_a   5.18703757
_cell_length_b   5.80962820
_cell_length_c   7.54274619
_cell_angle_alpha   90.00000000
_cell_angle_beta   90.00000000
_cell_angle_gamma   90.00000000
_symmetry_Int_Tables_number   1
_chemical_formula_structural   LiPrO3
_chemical_formula_sum   'Li4 Pr4 O12'
_cell_volume   227.29884438
_cell_formula_units_Z   4
loop_
 _symmetry_equiv_pos_site_id
 _symmetry_equiv_pos_as_xyz
  1  'x, y, z'
loop_
 _atom_site_type_symbol
 _atom_site_label
 _atom_site_symmetry_multiplicity
 _atom_site_fract_x
 _atom_site_fract_y
 _atom_site_fract_z
 _atom_site_occupancy
  Li  Li0  1  0.50000023  0.00000000  0.00000000  1
  Li  Li1  1  0.00000000  0.50000102  0.00000000  1
  Li  Li2  1  0.50000023  0.00000000  0.49999959  1
  Li  Li3  1  0.00000000  0.50000102  0.49999959  1
  O  O4  1  0.67756594  0.29088608  0.04169569  1
  O  O5  1  0.82243476  0.79088538  0.04169569  1
  O  O6  1  0.43927771  0.02943906  0.25000046  1
  O  O7  1  0.06072252  0.52943663  0.25000046  1
  O  O8  1  0.67756594  0.29088608  0.45830390  1
  O  O9  1  0.82243476  0.79088538  0.45830390  1
  O  O10  1  0.17756764  0.20911493  0.54169528  1
  O  O11  1  0.32243260  0.70911423  0.54169528  1
  O  O12  1  0.93927602  0.47056195  0.75000005  1
  O  O13  1  0.56072468  0.97056125  0.75000005  1
  O  O14  1  0.17756764  0.20911493  0.95830349  1
  O  O15  1  0.32243260  0.70911423  0.95830349  1
  Pr  Pr16  1  0.96944545  0.09089394  0.25000046  1
  Pr  Pr17  1  0.53055332  0.59089496  0.25000046  1
  Pr  Pr18  1  0.46944522  0.40910535  0.75000005  1
  Pr  Pr19  1  0.03055309  0.90910465  0.75000005  1
