# generated using pymatgen
data_AlBiO3
_symmetry_space_group_name_H-M   'P 1'
_cell_length_a   5.33480838
_cell_length_b   5.39149596
_cell_length_c   7.56865131
_cell_angle_alpha   90.00000000
_cell_angle_beta   90.00000000
_cell_angle_gamma   90.00000000
_symmetry_Int_Tables_number   1
_chemical_formula_structural   AlBiO3
_chemical_formula_sum   'Al4 Bi4 O12'
_cell_volume   217.69407411
_cell_formula_units_Z   4
loop_
 _symmetry_equiv_pos_site_id
 _symmetry_equiv_pos_as_xyz
  1  'x, y, z'
loop_
 _atom_site_type_symbol
 _atom_site_label
 _atom_site_symmetry_multiplicity
 _atom_site_fract_x
 _atom_site_fract_y
 _atom_site_fract_z
 _atom_site_occupancy
  Al  Al0  1  0.49999921  0.00000000  0.00000000  1
  Al  Al1  1  0.00000000  0.50000037  0.00000000  1
  Al  Al2  1  0.49999921  0.00000000  0.50000057  1
  Al  Al3  1  0.00000000  0.50000037  0.50000057  1
  Bi  Bi4  1  0.99433562  0.03727351  0.24999963  1
  Bi  Bi5  1  0.50566577  0.53727389  0.24999963  1
  Bi  Bi6  1  0.49433453  0.46272686  0.75000020  1
  Bi  Bi7  1  0.00566468  0.96272723  0.75000020  1
  O  O8  1  0.71700045  0.28244665  0.03217218  1
  O  O9  1  0.78299907  0.78244703  0.03217218  1
  O  O10  1  0.06198348  0.48742687  0.24999963  1
  O  O11  1  0.43801573  0.98742539  0.24999963  1
  O  O12  1  0.71700045  0.28244665  0.46782707  1
  O  O13  1  0.78299907  0.78244703  0.46782707  1
  O  O14  1  0.21700123  0.21755372  0.53217143  1
  O  O15  1  0.28299986  0.71755224  0.53217143  1
  O  O16  1  0.56198270  0.01257350  0.75000020  1
  O  O17  1  0.93801870  0.51257388  0.75000020  1
  O  O18  1  0.21700123  0.21755372  0.96782765  1
  O  O19  1  0.28299986  0.71755224  0.96782765  1
