# generated using pymatgen
data_SmTlO3
_symmetry_space_group_name_H-M   'P 1'
_cell_length_a   5.90072317
_cell_length_b   5.98303006
_cell_length_c   8.62286270
_cell_angle_alpha   90.00000000
_cell_angle_beta   90.00000000
_cell_angle_gamma   90.00000000
_symmetry_Int_Tables_number   1
_chemical_formula_structural   SmTlO3
_chemical_formula_sum   'Sm4 Tl4 O12'
_cell_volume   304.42330486
_cell_formula_units_Z   4
loop_
 _symmetry_equiv_pos_site_id
 _symmetry_equiv_pos_as_xyz
  1  'x, y, z'
loop_
 _atom_site_type_symbol
 _atom_site_label
 _atom_site_symmetry_multiplicity
 _atom_site_fract_x
 _atom_site_fract_y
 _atom_site_fract_z
 _atom_site_occupancy
  O  O0  1  0.66368475  0.33200903  0.07576022  1
  O  O1  1  0.83631444  0.83200819  0.07576022  1
  O  O2  1  0.13477331  0.38461448  0.25000050  1
  O  O3  1  0.36522642  0.88461531  0.25000050  1
  O  O4  1  0.66368475  0.33200903  0.42423962  1
  O  O5  1  0.83631444  0.83200819  0.42423962  1
  O  O6  1  0.16368502  0.16799180  0.57576123  1
  O  O7  1  0.33631471  0.66799096  0.57576123  1
  O  O8  1  0.63477304  0.11538468  0.75000034  1
  O  O9  1  0.86522615  0.61538551  0.75000034  1
  O  O10  1  0.16368502  0.16799180  0.92423946  1
  O  O11  1  0.33631471  0.66799096  0.92423946  1
  Sm  Sm12  1  0.49999973  0.00000000  0.00000000  1
  Sm  Sm13  1  0.00000000  0.50000083  0.00000000  1
  Sm  Sm14  1  0.49999973  0.00000000  0.49999984  1
  Sm  Sm15  1  0.00000000  0.50000083  0.49999984  1
  Tl  Tl16  1  0.99462724  0.04151074  0.25000050  1
  Tl  Tl17  1  0.50537365  0.54151157  0.25000050  1
  Tl  Tl18  1  0.49462751  0.45848842  0.75000034  1
  Tl  Tl19  1  0.00537392  0.95848925  0.75000034  1
