# generated using pymatgen
data_YMoO3
_symmetry_space_group_name_H-M   'P 1'
_cell_length_a   5.51937500
_cell_length_b   5.86300700
_cell_length_c   8.05104500
_cell_angle_alpha   90.00000000
_cell_angle_beta   90.00000000
_cell_angle_gamma   90.00000000
_symmetry_Int_Tables_number   1
_chemical_formula_structural   YMoO3
_chemical_formula_sum   'Y4 Mo4 O12'
_cell_volume   260.53289714
_cell_formula_units_Z   4
loop_
 _symmetry_equiv_pos_site_id
 _symmetry_equiv_pos_as_xyz
  1  'x, y, z'
loop_
 _atom_site_type_symbol
 _atom_site_label
 _atom_site_symmetry_multiplicity
 _atom_site_fract_x
 _atom_site_fract_y
 _atom_site_fract_z
 _atom_site_occupancy
  Y  Y0  1  0.52110700  0.43256100  0.25000000  1
  Y  Y1  1  0.02110700  0.06743900  0.75000000  1
  Y  Y2  1  0.97889300  0.93256100  0.25000000  1
  Y  Y3  1  0.47889300  0.56743900  0.75000000  1
  Mo  Mo4  1  0.50000000  0.00000000  0.00000000  1
  Mo  Mo5  1  0.00000000  0.50000000  0.00000000  1
  Mo  Mo6  1  0.00000000  0.50000000  0.50000000  1
  Mo  Mo7  1  0.50000000  0.00000000  0.50000000  1
  O  O8  1  0.18198900  0.81166500  0.92928400  1
  O  O9  1  0.68198900  0.68833500  0.07071600  1
  O  O10  1  0.31801100  0.31166500  0.57071600  1
  O  O11  1  0.81801100  0.18833500  0.42928400  1
  O  O12  1  0.81801100  0.18833500  0.07071600  1
  O  O13  1  0.31801100  0.31166500  0.92928400  1
  O  O14  1  0.68198900  0.68833500  0.42928400  1
  O  O15  1  0.18198900  0.81166500  0.57071600  1
  O  O16  1  0.63821300  0.93595900  0.75000000  1
  O  O17  1  0.13821300  0.56404100  0.25000000  1
  O  O18  1  0.86178700  0.43595900  0.75000000  1
  O  O19  1  0.36178700  0.06404100  0.25000000  1
