# generated using pymatgen
data_LaFeO3
_symmetry_space_group_name_H-M   'P 1'
_cell_length_a   5.60080500
_cell_length_b   5.66192400
_cell_length_c   7.94467100
_cell_angle_alpha   90.00000000
_cell_angle_beta   90.00000000
_cell_angle_gamma   90.00000000
_symmetry_Int_Tables_number   1
_chemical_formula_structural   LaFeO3
_chemical_formula_sum   'La4 Fe4 O12'
_cell_volume   251.93610169
_cell_formula_units_Z   4
loop_
 _symmetry_equiv_pos_site_id
 _symmetry_equiv_pos_as_xyz
  1  'x, y, z'
loop_
 _atom_site_type_symbol
 _atom_site_label
 _atom_site_symmetry_multiplicity
 _atom_site_fract_x
 _atom_site_fract_y
 _atom_site_fract_z
 _atom_site_occupancy
  La  La0  1  0.00938100  0.96174100  0.75000000  1
  La  La1  1  0.50938100  0.53825900  0.25000000  1
  La  La2  1  0.49061900  0.46174100  0.75000000  1
  La  La3  1  0.99061900  0.03825900  0.25000000  1
  Fe  Fe4  1  0.50000000  0.00000000  0.50000000  1
  Fe  Fe5  1  0.00000000  0.50000000  0.50000000  1
  Fe  Fe6  1  0.00000000  0.50000000  0.00000000  1
  Fe  Fe7  1  0.50000000  0.00000000  0.00000000  1
  O  O8  1  0.71259400  0.28797500  0.45372500  1
  O  O9  1  0.21259400  0.21202500  0.54627500  1
  O  O10  1  0.78740600  0.78797500  0.04627500  1
  O  O11  1  0.28740600  0.71202500  0.95372500  1
  O  O12  1  0.28740600  0.71202500  0.54627500  1
  O  O13  1  0.78740600  0.78797500  0.45372500  1
  O  O14  1  0.21259400  0.21202500  0.95372500  1
  O  O15  1  0.71259400  0.28797500  0.04627500  1
  O  O16  1  0.08612000  0.47826500  0.25000000  1
  O  O17  1  0.58612000  0.02173500  0.75000000  1
  O  O18  1  0.41388000  0.97826500  0.25000000  1
  O  O19  1  0.91388000  0.52173500  0.75000000  1
