# generated using pymatgen
data_CoAgF3
_symmetry_space_group_name_H-M   'P 1'
_cell_length_a   5.50132692
_cell_length_b   5.54945083
_cell_length_c   7.84937704
_cell_angle_alpha   89.67720111
_cell_angle_beta   89.85649099
_cell_angle_gamma   88.74811778
_symmetry_Int_Tables_number   1
_chemical_formula_structural   CoAgF3
_chemical_formula_sum   'Co4 Ag4 F12'
_cell_volume   239.57464517
_cell_formula_units_Z   4
loop_
 _symmetry_equiv_pos_site_id
 _symmetry_equiv_pos_as_xyz
  1  'x, y, z'
loop_
 _atom_site_type_symbol
 _atom_site_label
 _atom_site_symmetry_multiplicity
 _atom_site_fract_x
 _atom_site_fract_y
 _atom_site_fract_z
 _atom_site_occupancy
  Ag  Ag0  1  0.53951296  0.49454862  0.24966676  1
  Ag  Ag1  1  0.03851300  0.00760556  0.25043232  1
  Ag  Ag2  1  0.96148700  0.99239444  0.74956768  1
  Ag  Ag3  1  0.46048704  0.50545138  0.75033324  1
  Co  Co4  1  0.50000000  0.00000000  0.00000000  1
  Co  Co5  1  0.00000000  0.50000000  0.00000000  1
  Co  Co6  1  0.50000000  0.00000000  0.50000000  1
  Co  Co7  1  0.00000000  0.50000000  0.50000000  1
  F  F8  1  0.79453818  0.20651165  0.03643798  1
  F  F9  1  0.29422475  0.29460246  0.04985923  1
  F  F10  1  0.98320530  0.58498786  0.24986201  1
  F  F11  1  0.50608041  0.91832102  0.25017635  1
  F  F12  1  0.29296738  0.29272174  0.45035183  1
  F  F13  1  0.79396001  0.20771984  0.46318897  1
  F  F14  1  0.20603999  0.79228016  0.53681103  1
  F  F15  1  0.70703262  0.70727826  0.54964817  1
  F  F16  1  0.49391959  0.08167898  0.74982365  1
  F  F17  1  0.01679470  0.41501214  0.75013799  1
  F  F18  1  0.70577525  0.70539754  0.95014077  1
  F  F19  1  0.20546182  0.79348835  0.96356202  1
