# generated using pymatgen
data_EuMoO3
_symmetry_space_group_name_H-M   'P 1'
_cell_length_a   5.48975799
_cell_length_b   5.58659859
_cell_length_c   7.83026102
_cell_angle_alpha   90.00000000
_cell_angle_beta   90.00000000
_cell_angle_gamma   90.00000000
_symmetry_Int_Tables_number   1
_chemical_formula_structural   EuMoO3
_chemical_formula_sum   'Eu4 Mo4 O12'
_cell_volume   240.14685673
_cell_formula_units_Z   4
loop_
 _symmetry_equiv_pos_site_id
 _symmetry_equiv_pos_as_xyz
  1  'x, y, z'
loop_
 _atom_site_type_symbol
 _atom_site_label
 _atom_site_symmetry_multiplicity
 _atom_site_fract_x
 _atom_site_fract_y
 _atom_site_fract_z
 _atom_site_occupancy
  Eu  Eu0  1  0.99306928  0.03903986  0.24999933  1
  Eu  Eu1  1  0.50692945  0.53903819  0.24999933  1
  Eu  Eu2  1  0.49307092  0.46096027  0.75000054  1
  Eu  Eu3  1  0.00692927  0.96096040  0.75000054  1
  Mo  Mo4  1  0.50000018  0.00000000  0.00000000  1
  Mo  Mo5  1  0.00000000  0.50000013  0.00000000  1
  Mo  Mo6  1  0.50000018  0.00000000  0.50000121  1
  Mo  Mo7  1  0.00000000  0.50000013  0.50000121  1
  O  O8  1  0.71403694  0.28434475  0.03093383  1
  O  O9  1  0.78596361  0.78434488  0.03093383  1
  O  O10  1  0.05926673  0.49023569  0.24999933  1
  O  O11  1  0.44073345  0.99023760  0.24999933  1
  O  O12  1  0.71403694  0.28434475  0.46906482  1
  O  O13  1  0.78596361  0.78434488  0.46906482  1
  O  O14  1  0.21403858  0.21565358  0.53093505  1
  O  O15  1  0.28596343  0.71565371  0.53093505  1
  O  O16  1  0.55926691  0.00976265  0.75000054  1
  O  O17  1  0.94073546  0.50976277  0.75000054  1
  O  O18  1  0.21403858  0.21565358  0.96906604  1
  O  O19  1  0.28596343  0.71565371  0.96906604  1
