# generated using pymatgen
data_SmDyO3
_symmetry_space_group_name_H-M   'P 1'
_cell_length_a   5.80191200
_cell_length_b   6.05917300
_cell_length_c   8.47748700
_cell_angle_alpha   90.00000000
_cell_angle_beta   90.00000000
_cell_angle_gamma   90.00000000
_symmetry_Int_Tables_number   1
_chemical_formula_structural   SmDyO3
_chemical_formula_sum   'Sm4 Dy4 O12'
_cell_volume   298.02426283
_cell_formula_units_Z   4
loop_
 _symmetry_equiv_pos_site_id
 _symmetry_equiv_pos_as_xyz
  1  'x, y, z'
loop_
 _atom_site_type_symbol
 _atom_site_label
 _atom_site_symmetry_multiplicity
 _atom_site_fract_x
 _atom_site_fract_y
 _atom_site_fract_z
 _atom_site_occupancy
  Sm  Sm0  1  0.98694600  0.05145600  0.25000000  1
  Sm  Sm1  1  0.48694600  0.44854400  0.75000000  1
  Sm  Sm2  1  0.51305400  0.55145600  0.25000000  1
  Sm  Sm3  1  0.01305400  0.94854400  0.75000000  1
  Dy  Dy4  1  0.50000000  0.00000000  0.00000000  1
  Dy  Dy5  1  0.50000000  0.00000000  0.50000000  1
  Dy  Dy6  1  0.00000000  0.50000000  0.00000000  1
  Dy  Dy7  1  0.00000000  0.50000000  0.50000000  1
  O  O8  1  0.64068600  0.07359600  0.75000000  1
  O  O9  1  0.18060700  0.18387900  0.57257900  1
  O  O10  1  0.18060700  0.18387900  0.92742100  1
  O  O11  1  0.68060700  0.31612100  0.42742100  1
  O  O12  1  0.68060700  0.31612100  0.07257900  1
  O  O13  1  0.14068600  0.42640400  0.25000000  1
  O  O14  1  0.85931400  0.57359600  0.75000000  1
  O  O15  1  0.31939300  0.68387900  0.92742100  1
  O  O16  1  0.31939300  0.68387900  0.57257900  1
  O  O17  1  0.81939300  0.81612100  0.07257900  1
  O  O18  1  0.81939300  0.81612100  0.42742100  1
  O  O19  1  0.35931400  0.92640400  0.25000000  1
