# generated using pymatgen
data_TbGaO3
_symmetry_space_group_name_H-M   'P 1'
_cell_length_a   5.32099700
_cell_length_b   5.60395000
_cell_length_c   7.65955500
_cell_angle_alpha   90.00000000
_cell_angle_beta   90.00000000
_cell_angle_gamma   90.00000000
_symmetry_Int_Tables_number   1
_chemical_formula_structural   TbGaO3
_chemical_formula_sum   'Tb4 Ga4 O12'
_cell_volume   228.39721544
_cell_formula_units_Z   4
loop_
 _symmetry_equiv_pos_site_id
 _symmetry_equiv_pos_as_xyz
  1  'x, y, z'
loop_
 _atom_site_type_symbol
 _atom_site_label
 _atom_site_symmetry_multiplicity
 _atom_site_fract_x
 _atom_site_fract_y
 _atom_site_fract_z
 _atom_site_occupancy
  Tb  Tb0  1  0.01905800  0.06618400  0.75000000  1
  Tb  Tb1  1  0.48094200  0.56618400  0.75000000  1
  Tb  Tb2  1  0.51905800  0.43381600  0.25000000  1
  Tb  Tb3  1  0.98094200  0.93381600  0.25000000  1
  Ga  Ga4  1  0.00000000  0.50000000  0.50000000  1
  Ga  Ga5  1  0.50000000  0.00000000  0.50000000  1
  Ga  Ga6  1  0.50000000  0.00000000  0.00000000  1
  Ga  Ga7  1  0.00000000  0.50000000  0.00000000  1
  O  O8  1  0.10878500  0.53742000  0.25000000  1
  O  O9  1  0.19643100  0.80198700  0.55595400  1
  O  O10  1  0.19643100  0.80198700  0.94404600  1
  O  O11  1  0.30356900  0.30198700  0.94404600  1
  O  O12  1  0.30356900  0.30198700  0.55595400  1
  O  O13  1  0.39121500  0.03742000  0.25000000  1
  O  O14  1  0.60878500  0.96258000  0.75000000  1
  O  O15  1  0.69643100  0.69801300  0.05595400  1
  O  O16  1  0.69643100  0.69801300  0.44404600  1
  O  O17  1  0.80356900  0.19801300  0.44404600  1
  O  O18  1  0.80356900  0.19801300  0.05595400  1
  O  O19  1  0.89121500  0.46258000  0.75000000  1
