# generated using pymatgen
data_TmCoO3
_symmetry_space_group_name_H-M   'P 1'
_cell_length_a   5.13606200
_cell_length_b   5.70876600
_cell_length_c   7.36092400
_cell_angle_alpha   90.00000000
_cell_angle_beta   90.00000000
_cell_angle_gamma   90.00000000
_symmetry_Int_Tables_number   1
_chemical_formula_structural   TmCoO3
_chemical_formula_sum   'Tm4 Co4 O12'
_cell_volume   215.82653245
_cell_formula_units_Z   4
loop_
 _symmetry_equiv_pos_site_id
 _symmetry_equiv_pos_as_xyz
  1  'x, y, z'
loop_
 _atom_site_type_symbol
 _atom_site_label
 _atom_site_symmetry_multiplicity
 _atom_site_fract_x
 _atom_site_fract_y
 _atom_site_fract_z
 _atom_site_occupancy
  Tm  Tm0  1  0.02488900  0.91064400  0.75000000  1
  Tm  Tm1  1  0.97511100  0.08935600  0.25000000  1
  Tm  Tm2  1  0.47511100  0.41064400  0.75000000  1
  Tm  Tm3  1  0.52488900  0.58935600  0.25000000  1
  Co  Co4  1  0.50000000  0.00000000  0.50000000  1
  Co  Co5  1  0.00000000  0.50000000  0.00000000  1
  Co  Co6  1  0.00000000  0.50000000  0.50000000  1
  Co  Co7  1  0.50000000  0.00000000  0.00000000  1
  O  O8  1  0.61565300  0.03582700  0.75000000  1
  O  O9  1  0.80463100  0.82035900  0.05583300  1
  O  O10  1  0.38434700  0.96417300  0.25000000  1
  O  O11  1  0.69536900  0.32035900  0.05583300  1
  O  O12  1  0.30463100  0.67964100  0.55583300  1
  O  O13  1  0.19536900  0.17964100  0.94416700  1
  O  O14  1  0.30463100  0.67964100  0.94416700  1
  O  O15  1  0.88434700  0.53582700  0.75000000  1
  O  O16  1  0.80463100  0.82035900  0.44416700  1
  O  O17  1  0.19536900  0.17964100  0.55583300  1
  O  O18  1  0.11565300  0.46417300  0.25000000  1
  O  O19  1  0.69536900  0.32035900  0.44416700  1
