# generated using pymatgen
data_TbGaO3
_symmetry_space_group_name_H-M   'P 1'
_cell_length_a   3.67592647
_cell_length_b   3.67592647
_cell_length_c   4.36109433
_cell_angle_alpha   90.00000000
_cell_angle_beta   90.00000000
_cell_angle_gamma   90.00000000
_symmetry_Int_Tables_number   1
_chemical_formula_structural   TbGaO3
_chemical_formula_sum   'Tb1 Ga1 O3'
_cell_volume   58.92900560
_cell_formula_units_Z   1
loop_
 _symmetry_equiv_pos_site_id
 _symmetry_equiv_pos_as_xyz
  1  'x, y, z'
loop_
 _atom_site_type_symbol
 _atom_site_label
 _atom_site_symmetry_multiplicity
 _atom_site_fract_x
 _atom_site_fract_y
 _atom_site_fract_z
 _atom_site_occupancy
  Ga  Ga0  1  0.49999912  0.49999912  0.52896127  1
  O  O1  1  0.49999912  0.49999912  0.10801417  1
  O  O2  1  0.49999912  0.00000000  0.64890823  1
  O  O3  1  0.00000000  0.49999912  0.64890823  1
  Tb  Tb4  1  0.00000000  0.00000000  0.96520957  1
