# generated using pymatgen
data_CaTlCl3
_symmetry_space_group_name_H-M   'P 1'
_cell_length_a   5.40007420
_cell_length_b   5.40007420
_cell_length_c   5.39768030
_cell_angle_alpha   89.98658232
_cell_angle_beta   89.98658232
_cell_angle_gamma   90.02388806
_symmetry_Int_Tables_number   1
_chemical_formula_structural   CaTlCl3
_chemical_formula_sum   'Ca1 Tl1 Cl3'
_cell_volume   157.40066041
_cell_formula_units_Z   1
loop_
 _symmetry_equiv_pos_site_id
 _symmetry_equiv_pos_as_xyz
  1  'x, y, z'
loop_
 _atom_site_type_symbol
 _atom_site_label
 _atom_site_symmetry_multiplicity
 _atom_site_fract_x
 _atom_site_fract_y
 _atom_site_fract_z
 _atom_site_occupancy
  Ca  Ca0  1  0.50541700  0.50541700  0.48464800  1
  Tl  Tl1  1  0.00781400  0.00781400  0.00269600  1
  Cl  Cl2  1  0.50331300  0.00476000  0.48174300  1
  Cl  Cl3  1  0.49297900  0.49297900  0.98463500  1
  Cl  Cl4  1  0.00476000  0.50331300  0.48174300  1
