# generated using pymatgen
data_HfPbO3
_symmetry_space_group_name_H-M   'P 1'
_cell_length_a   5.80999900
_cell_length_b   5.83668900
_cell_length_c   8.27873000
_cell_angle_alpha   90.00000000
_cell_angle_beta   90.00000000
_cell_angle_gamma   90.00000000
_symmetry_Int_Tables_number   1
_chemical_formula_structural   HfPbO3
_chemical_formula_sum   'Hf4 Pb4 O12'
_cell_volume   280.74131489
_cell_formula_units_Z   4
loop_
 _symmetry_equiv_pos_site_id
 _symmetry_equiv_pos_as_xyz
  1  'x, y, z'
loop_
 _atom_site_type_symbol
 _atom_site_label
 _atom_site_symmetry_multiplicity
 _atom_site_fract_x
 _atom_site_fract_y
 _atom_site_fract_z
 _atom_site_occupancy
  Hf  Hf0  1  0.00000000  0.00000000  0.50000000  1
  Hf  Hf1  1  0.00000000  0.00000000  0.00000000  1
  Hf  Hf2  1  0.50000000  0.50000000  0.50000000  1
  Hf  Hf3  1  0.50000000  0.50000000  0.00000000  1
  Pb  Pb4  1  0.49867000  0.01826700  0.75000000  1
  Pb  Pb5  1  0.99867000  0.48173300  0.25000000  1
  Pb  Pb6  1  0.00133000  0.51826700  0.75000000  1
  Pb  Pb7  1  0.50133000  0.98173300  0.25000000  1
  O  O8  1  0.05954900  0.00917800  0.25000000  1
  O  O9  1  0.71286100  0.21315500  0.02969000  1
  O  O10  1  0.71286100  0.21315500  0.47031000  1
  O  O11  1  0.21286100  0.28684500  0.97031000  1
  O  O12  1  0.21286100  0.28684500  0.52969000  1
  O  O13  1  0.55954900  0.49082200  0.75000000  1
  O  O14  1  0.44045100  0.50917800  0.25000000  1
  O  O15  1  0.78713900  0.71315500  0.02969000  1
  O  O16  1  0.78713900  0.71315500  0.47031000  1
  O  O17  1  0.28713900  0.78684500  0.52969000  1
  O  O18  1  0.28713900  0.78684500  0.97031000  1
  O  O19  1  0.94045100  0.99082200  0.75000000  1
