# generated using pymatgen
data_YSnO3
_symmetry_space_group_name_H-M   'P 1'
_cell_length_a   5.93252900
_cell_length_b   5.66211700
_cell_length_c   10.26570904
_cell_angle_alpha   56.89690748
_cell_angle_beta   90.00000000
_cell_angle_gamma   90.00000000
_symmetry_Int_Tables_number   1
_chemical_formula_structural   YSnO3
_chemical_formula_sum   'Y4 Sn4 O12'
_cell_volume   288.86212172
_cell_formula_units_Z   4
loop_
 _symmetry_equiv_pos_site_id
 _symmetry_equiv_pos_as_xyz
  1  'x, y, z'
loop_
 _atom_site_type_symbol
 _atom_site_label
 _atom_site_symmetry_multiplicity
 _atom_site_fract_x
 _atom_site_fract_y
 _atom_site_fract_z
 _atom_site_occupancy
  Y  Y0  1  0.56129900  0.72617400  0.75034400  1
  Y  Y1  1  0.93870100  0.72617400  0.25034400  1
  Y  Y2  1  0.06129900  0.27382600  0.74965600  1
  Y  Y3  1  0.43870100  0.27382600  0.24965600  1
  Sn  Sn4  1  0.00000000  0.00000000  0.50000000  1
  Sn  Sn5  1  0.50000000  0.50000000  0.50000000  1
  Sn  Sn6  1  0.50000000  0.00000000  0.00000000  1
  Sn  Sn7  1  0.00000000  0.50000000  0.00000000  1
  O  O8  1  0.20487000  0.43076600  0.41122400  1
  O  O9  1  0.32538300  0.70973100  0.58068000  1
  O  O10  1  0.70487000  0.56923400  0.08877600  1
  O  O11  1  0.82538300  0.29026900  0.91932000  1
  O  O12  1  0.79513000  0.56923400  0.58877600  1
  O  O13  1  0.67461700  0.29026900  0.41932000  1
  O  O14  1  0.29513000  0.43076600  0.91122400  1
  O  O15  1  0.17461700  0.70973100  0.08068000  1
  O  O16  1  0.08499500  0.11918200  0.21969400  1
  O  O17  1  0.41500500  0.11918200  0.71969400  1
  O  O18  1  0.58499500  0.88081800  0.28030600  1
  O  O19  1  0.91500500  0.88081800  0.78030600  1
