# generated using pymatgen
data_SrTbO3
_symmetry_space_group_name_H-M   'P 1'
_cell_length_a   6.04834500
_cell_length_b   6.22670800
_cell_length_c   8.59764500
_cell_angle_alpha   90.00000000
_cell_angle_beta   90.00000000
_cell_angle_gamma   90.00000000
_symmetry_Int_Tables_number   1
_chemical_formula_structural   SrTbO3
_chemical_formula_sum   'Sr4 Tb4 O12'
_cell_volume   323.79830019
_cell_formula_units_Z   4
loop_
 _symmetry_equiv_pos_site_id
 _symmetry_equiv_pos_as_xyz
  1  'x, y, z'
loop_
 _atom_site_type_symbol
 _atom_site_label
 _atom_site_symmetry_multiplicity
 _atom_site_fract_x
 _atom_site_fract_y
 _atom_site_fract_z
 _atom_site_occupancy
  Sr  Sr0  1  0.98332700  0.05068900  0.25000000  1
  Sr  Sr1  1  0.48332700  0.44931100  0.75000000  1
  Sr  Sr2  1  0.51667300  0.55068900  0.25000000  1
  Sr  Sr3  1  0.01667300  0.94931100  0.75000000  1
  Tb  Tb4  1  0.50000000  0.00000000  0.00000000  1
  Tb  Tb5  1  0.00000000  0.50000000  0.00000000  1
  Tb  Tb6  1  0.00000000  0.50000000  0.50000000  1
  Tb  Tb7  1  0.50000000  0.00000000  0.50000000  1
  O  O8  1  0.20279900  0.20540000  0.56038700  1
  O  O9  1  0.70279900  0.29460000  0.43961300  1
  O  O10  1  0.29720100  0.70540000  0.93961300  1
  O  O11  1  0.79720100  0.79460000  0.06038700  1
  O  O12  1  0.79720100  0.79460000  0.43961300  1
  O  O13  1  0.29720100  0.70540000  0.56038700  1
  O  O14  1  0.70279900  0.29460000  0.06038700  1
  O  O15  1  0.20279900  0.20540000  0.93961300  1
  O  O16  1  0.11305100  0.44969400  0.25000000  1
  O  O17  1  0.61305100  0.05030600  0.75000000  1
  O  O18  1  0.38694900  0.94969400  0.25000000  1
  O  O19  1  0.88694900  0.55030600  0.75000000  1
