# generated using pymatgen
data_CaZnO3
_symmetry_space_group_name_H-M   'P 1'
_cell_length_a   5.42580427
_cell_length_b   5.66121542
_cell_length_c   7.58805603
_cell_angle_alpha   90.00000000
_cell_angle_beta   90.00000000
_cell_angle_gamma   90.00000000
_symmetry_Int_Tables_number   1
_chemical_formula_structural   CaZnO3
_chemical_formula_sum   'Ca4 Zn4 O12'
_cell_volume   233.07963688
_cell_formula_units_Z   4
loop_
 _symmetry_equiv_pos_site_id
 _symmetry_equiv_pos_as_xyz
  1  'x, y, z'
loop_
 _atom_site_type_symbol
 _atom_site_label
 _atom_site_symmetry_multiplicity
 _atom_site_fract_x
 _atom_site_fract_y
 _atom_site_fract_z
 _atom_site_occupancy
  Ca  Ca0  1  0.98651550  0.05844505  0.24999947  1
  Ca  Ca1  1  0.51348516  0.55844545  0.24999947  1
  Ca  Ca2  1  0.48651589  0.44155359  0.74999973  1
  Ca  Ca3  1  0.01348556  0.94155400  0.74999973  1
  O  O4  1  0.70391039  0.29253789  0.04355661  1
  O  O5  1  0.79608843  0.79253829  0.04355661  1
  O  O6  1  0.09062620  0.46710994  0.24999947  1
  O  O7  1  0.40937341  0.96711035  0.24999947  1
  O  O8  1  0.70391039  0.29253789  0.45644365  1
  O  O9  1  0.79608843  0.79253829  0.45644365  1
  O  O10  1  0.20391078  0.20746252  0.54355687  1
  O  O11  1  0.29609067  0.70746115  0.54355687  1
  O  O12  1  0.59062580  0.03288870  0.74999973  1
  O  O13  1  0.90937486  0.53289087  0.74999973  1
  O  O14  1  0.20391078  0.20746252  0.95644260  1
  O  O15  1  0.29609067  0.70746115  0.95644260  1
  Zn  Zn16  1  0.49999961  0.00000000  0.00000000  1
  Zn  Zn17  1  0.00000000  0.49999864  0.00000000  1
  Zn  Zn18  1  0.49999961  0.00000000  0.50000026  1
  Zn  Zn19  1  0.00000000  0.49999864  0.50000026  1
