# generated using pymatgen
data_CoSnO3
_symmetry_space_group_name_H-M   'P 1'
_cell_length_a   5.39492200
_cell_length_b   5.42276600
_cell_length_c   7.81053000
_cell_angle_alpha   90.00000000
_cell_angle_beta   90.00000000
_cell_angle_gamma   90.00000000
_symmetry_Int_Tables_number   1
_chemical_formula_structural   CoSnO3
_chemical_formula_sum   'Co4 Sn4 O12'
_cell_volume   228.50017619
_cell_formula_units_Z   4
loop_
 _symmetry_equiv_pos_site_id
 _symmetry_equiv_pos_as_xyz
  1  'x, y, z'
loop_
 _atom_site_type_symbol
 _atom_site_label
 _atom_site_symmetry_multiplicity
 _atom_site_fract_x
 _atom_site_fract_y
 _atom_site_fract_z
 _atom_site_occupancy
  Co  Co0  1  0.02742200  0.01348700  0.75000000  1
  Co  Co1  1  0.52742200  0.48651300  0.75000000  1
  Co  Co2  1  0.47257800  0.51348700  0.25000000  1
  Co  Co3  1  0.97257800  0.98651300  0.25000000  1
  Sn  Sn4  1  0.50000000  0.00000000  0.00000000  1
  Sn  Sn5  1  0.50000000  0.00000000  0.50000000  1
  Sn  Sn6  1  0.00000000  0.50000000  0.00000000  1
  Sn  Sn7  1  0.00000000  0.50000000  0.50000000  1
  O  O8  1  0.59391900  0.87506800  0.25000000  1
  O  O9  1  0.83182700  0.83477800  0.56675500  1
  O  O10  1  0.83182700  0.83477800  0.93324500  1
  O  O11  1  0.33182700  0.66522200  0.56675500  1
  O  O12  1  0.33182700  0.66522200  0.93324500  1
  O  O13  1  0.09391900  0.62493200  0.25000000  1
  O  O14  1  0.90608100  0.37506800  0.75000000  1
  O  O15  1  0.66817300  0.33477800  0.06675500  1
  O  O16  1  0.66817300  0.33477800  0.43324500  1
  O  O17  1  0.16817300  0.16522200  0.06675500  1
  O  O18  1  0.16817300  0.16522200  0.43324500  1
  O  O19  1  0.40608100  0.12493200  0.75000000  1
