# generated using pymatgen
data_SbPbO3
_symmetry_space_group_name_H-M   'P 1'
_cell_length_a   3.95122860
_cell_length_b   3.95122860
_cell_length_c   4.90991179
_cell_angle_alpha   90.00000000
_cell_angle_beta   90.00000000
_cell_angle_gamma   90.00000000
_symmetry_Int_Tables_number   1
_chemical_formula_structural   SbPbO3
_chemical_formula_sum   'Sb1 Pb1 O3'
_cell_volume   76.65456157
_cell_formula_units_Z   1
loop_
 _symmetry_equiv_pos_site_id
 _symmetry_equiv_pos_as_xyz
  1  'x, y, z'
loop_
 _atom_site_type_symbol
 _atom_site_label
 _atom_site_symmetry_multiplicity
 _atom_site_fract_x
 _atom_site_fract_y
 _atom_site_fract_z
 _atom_site_occupancy
  O  O0  1  0.49999891  0.49999891  0.06695029  1
  O  O1  1  0.49999891  0.00000000  0.70324278  1
  O  O2  1  0.00000000  0.49999891  0.70324278  1
  Pb  Pb3  1  0.49999891  0.49999891  0.48989271  1
  Sb  Sb4  1  0.00000000  0.00000000  0.93667300  1
