# generated using pymatgen
data_SrAgO3
_symmetry_space_group_name_H-M   'P 1'
_cell_length_a   5.70319026
_cell_length_b   5.83912839
_cell_length_c   8.03994032
_cell_angle_alpha   90.00000000
_cell_angle_beta   90.00000000
_cell_angle_gamma   90.00000000
_symmetry_Int_Tables_number   1
_chemical_formula_structural   SrAgO3
_chemical_formula_sum   'Sr4 Ag4 O12'
_cell_volume   267.74336065
_cell_formula_units_Z   4
loop_
 _symmetry_equiv_pos_site_id
 _symmetry_equiv_pos_as_xyz
  1  'x, y, z'
loop_
 _atom_site_type_symbol
 _atom_site_label
 _atom_site_symmetry_multiplicity
 _atom_site_fract_x
 _atom_site_fract_y
 _atom_site_fract_z
 _atom_site_occupancy
  Ag  Ag0  1  0.50000085  0.00000000  0.00000000  1
  Ag  Ag1  1  0.00000000  0.49999928  0.00000000  1
  Ag  Ag2  1  0.50000085  0.00000000  0.49999998  1
  Ag  Ag3  1  0.00000000  0.49999928  0.49999998  1
  O  O4  1  0.70529297  0.29232103  0.04330878  1
  O  O5  1  0.79470784  0.79232031  0.04330878  1
  O  O6  1  0.08570466  0.47367857  0.24999937  1
  O  O7  1  0.41429444  0.97367785  0.24999937  1
  O  O8  1  0.70529297  0.29232103  0.45669120  1
  O  O9  1  0.79470784  0.79232031  0.45669120  1
  O  O10  1  0.20529387  0.20767997  0.54330876  1
  O  O11  1  0.29470698  0.70767925  0.54330876  1
  O  O12  1  0.58570376  0.02632071  0.74999935  1
  O  O13  1  0.91429529  0.52632170  0.74999935  1
  O  O14  1  0.20529387  0.20767997  0.95669118  1
  O  O15  1  0.29470698  0.70767925  0.95669118  1
  Sr  Sr16  1  0.98838365  0.05143062  0.24999937  1
  Sr  Sr17  1  0.51161716  0.55143162  0.24999937  1
  Sr  Sr18  1  0.48838455  0.44856866  0.74999935  1
  Sr  Sr19  1  0.01161631  0.94856965  0.74999935  1
