# generated using pymatgen
data_LiCeO3
_symmetry_space_group_name_H-M   'P 1'
_cell_length_a   5.26853802
_cell_length_b   5.74412012
_cell_length_c   7.58695133
_cell_angle_alpha   90.00000000
_cell_angle_beta   90.00000000
_cell_angle_gamma   90.00000000
_symmetry_Int_Tables_number   1
_chemical_formula_structural   LiCeO3
_chemical_formula_sum   'Li4 Ce4 O12'
_cell_volume   229.60478261
_cell_formula_units_Z   4
loop_
 _symmetry_equiv_pos_site_id
 _symmetry_equiv_pos_as_xyz
  1  'x, y, z'
loop_
 _atom_site_type_symbol
 _atom_site_label
 _atom_site_symmetry_multiplicity
 _atom_site_fract_x
 _atom_site_fract_y
 _atom_site_fract_z
 _atom_site_occupancy
  Ce  Ce0  1  0.97497636  0.08194118  0.25000029  1
  Ce  Ce1  1  0.52502421  0.58194117  0.25000029  1
  Ce  Ce2  1  0.47497617  0.41805881  0.74999954  1
  Ce  Ce3  1  0.02502402  0.91805880  0.74999954  1
  Li  Li4  1  0.50000019  0.00000000  0.00000000  1
  Li  Li5  1  0.00000000  0.49999999  0.00000000  1
  Li  Li6  1  0.50000019  0.00000000  0.49999925  1
  Li  Li7  1  0.00000000  0.49999999  0.49999925  1
  O  O8  1  0.68637257  0.28609778  0.03961407  1
  O  O9  1  0.81362799  0.78609777  0.03961407  1
  O  O10  1  0.44616362  0.04176967  0.25000029  1
  O  O11  1  0.05383657  0.54176966  0.25000029  1
  O  O12  1  0.68637257  0.28609778  0.46038650  1
  O  O13  1  0.81362799  0.78609777  0.46038650  1
  O  O14  1  0.18637239  0.21390221  0.53961332  1
  O  O15  1  0.31362780  0.71390220  0.53961332  1
  O  O16  1  0.94616191  0.45823032  0.74999954  1
  O  O17  1  0.55383675  0.95823031  0.74999954  1
  O  O18  1  0.18637239  0.21390221  0.96038576  1
  O  O19  1  0.31362780  0.71390220  0.96038576  1
