# generated using pymatgen
data_BiMoO3
_symmetry_space_group_name_H-M   'P 1'
_cell_length_a   5.56007309
_cell_length_b   5.91095191
_cell_length_c   7.94386614
_cell_angle_alpha   90.00000000
_cell_angle_beta   90.00000000
_cell_angle_gamma   90.00000000
_symmetry_Int_Tables_number   1
_chemical_formula_structural   BiMoO3
_chemical_formula_sum   'Bi4 Mo4 O12'
_cell_volume   261.07773941
_cell_formula_units_Z   4
loop_
 _symmetry_equiv_pos_site_id
 _symmetry_equiv_pos_as_xyz
  1  'x, y, z'
loop_
 _atom_site_type_symbol
 _atom_site_label
 _atom_site_symmetry_multiplicity
 _atom_site_fract_x
 _atom_site_fract_y
 _atom_site_fract_z
 _atom_site_occupancy
  Bi  Bi0  1  0.98381441  0.05839161  0.25000044  1
  Bi  Bi1  1  0.51618566  0.55839229  0.25000044  1
  Bi  Bi2  1  0.48381378  0.44160738  0.75000005  1
  Bi  Bi3  1  0.01618504  0.94160807  0.75000005  1
  Mo  Mo4  1  0.50000062  0.00000000  0.00000000  1
  Mo  Mo5  1  0.00000000  0.50000068  0.00000000  1
  Mo  Mo6  1  0.50000062  0.00000000  0.49999961  1
  Mo  Mo7  1  0.00000000  0.50000068  0.49999961  1
  O  O8  1  0.67297677  0.31679669  0.04585802  1
  O  O9  1  0.82702330  0.81679737  0.04585802  1
  O  O10  1  0.12588144  0.46434145  0.25000044  1
  O  O11  1  0.37411918  0.96434045  0.25000044  1
  O  O12  1  0.67297677  0.31679669  0.45414159  1
  O  O13  1  0.82702330  0.81679737  0.45414159  1
  O  O14  1  0.17297614  0.18320230  0.54585890  1
  O  O15  1  0.32702448  0.68320299  0.54585890  1
  O  O16  1  0.62588206  0.03565923  0.75000005  1
  O  O17  1  0.87411801  0.53565822  0.75000005  1
  O  O18  1  0.17297614  0.18320230  0.95414120  1
  O  O19  1  0.32702448  0.68320299  0.95414120  1
