# generated using pymatgen
data_ScFeO3
_symmetry_space_group_name_H-M   'P 1'
_cell_length_a   5.10201200
_cell_length_b   5.42055000
_cell_length_c   7.67374500
_cell_angle_alpha   90.00000000
_cell_angle_beta   90.00000000
_cell_angle_gamma   90.00000000
_symmetry_Int_Tables_number   1
_chemical_formula_structural   ScFeO3
_chemical_formula_sum   'Sc4 Fe4 O12'
_cell_volume   212.22287513
_cell_formula_units_Z   4
loop_
 _symmetry_equiv_pos_site_id
 _symmetry_equiv_pos_as_xyz
  1  'x, y, z'
loop_
 _atom_site_type_symbol
 _atom_site_label
 _atom_site_symmetry_multiplicity
 _atom_site_fract_x
 _atom_site_fract_y
 _atom_site_fract_z
 _atom_site_occupancy
  Sc  Sc0  1  0.52527700  0.42995800  0.25000000  1
  Sc  Sc1  1  0.97472300  0.92995800  0.25000000  1
  Sc  Sc2  1  0.02527700  0.07004200  0.75000000  1
  Sc  Sc3  1  0.47472300  0.57004200  0.75000000  1
  Fe  Fe4  1  0.50000000  0.00000000  0.50000000  1
  Fe  Fe5  1  0.50000000  0.00000000  0.00000000  1
  Fe  Fe6  1  0.00000000  0.50000000  0.50000000  1
  Fe  Fe7  1  0.00000000  0.50000000  0.00000000  1
  O  O8  1  0.64621500  0.93619100  0.75000000  1
  O  O9  1  0.68483000  0.68752100  0.07503900  1
  O  O10  1  0.68483000  0.68752100  0.42496100  1
  O  O11  1  0.81517000  0.18752100  0.07503900  1
  O  O12  1  0.81517000  0.18752100  0.42496100  1
  O  O13  1  0.85378500  0.43619100  0.75000000  1
  O  O14  1  0.14621500  0.56380900  0.25000000  1
  O  O15  1  0.18483000  0.81247900  0.57503900  1
  O  O16  1  0.18483000  0.81247900  0.92496100  1
  O  O17  1  0.31517000  0.31247900  0.57503900  1
  O  O18  1  0.31517000  0.31247900  0.92496100  1
  O  O19  1  0.35378500  0.06380900  0.25000000  1
