# generated using pymatgen
data_CdSiO3
_symmetry_space_group_name_H-M   'P 1'
_cell_length_a   5.07198264
_cell_length_b   5.09360739
_cell_length_c   7.19084912
_cell_angle_alpha   90.00000000
_cell_angle_beta   90.00000000
_cell_angle_gamma   90.00000000
_symmetry_Int_Tables_number   1
_chemical_formula_structural   CdSiO3
_chemical_formula_sum   'Cd4 Si4 O12'
_cell_volume   185.77334545
_cell_formula_units_Z   4
loop_
 _symmetry_equiv_pos_site_id
 _symmetry_equiv_pos_as_xyz
  1  'x, y, z'
loop_
 _atom_site_type_symbol
 _atom_site_label
 _atom_site_symmetry_multiplicity
 _atom_site_fract_x
 _atom_site_fract_y
 _atom_site_fract_z
 _atom_site_occupancy
  Cd  Cd0  1  0.99646832  0.02063371  0.25000107  1
  Cd  Cd1  1  0.50353090  0.52063298  0.25000107  1
  Cd  Cd2  1  0.49647055  0.47936753  0.75000044  1
  Cd  Cd3  1  0.00353116  0.97936681  0.75000044  1
  O  O4  1  0.71630174  0.28085203  0.03335906  1
  O  O5  1  0.78369945  0.78085131  0.03335906  1
  O  O6  1  0.06485235  0.48790176  0.25000107  1
  O  O7  1  0.43514739  0.98790103  0.25000107  1
  O  O8  1  0.71630174  0.28085203  0.46664030  1
  O  O9  1  0.78369945  0.78085131  0.46664030  1
  O  O10  1  0.21630003  0.21914724  0.53335982  1
  O  O11  1  0.28369971  0.71914848  0.53335982  1
  O  O12  1  0.56485209  0.01209752  0.75000044  1
  O  O13  1  0.93514910  0.51209875  0.75000044  1
  O  O14  1  0.21630003  0.21914724  0.96663967  1
  O  O15  1  0.28369971  0.71914848  0.96663967  1
  Si  Si16  1  0.49999974  0.00000000  0.00000000  1
  Si  Si17  1  0.00000000  0.49999927  0.00000000  1
  Si  Si18  1  0.49999974  0.00000000  0.49999937  1
  Si  Si19  1  0.00000000  0.49999927  0.49999937  1
