# generated using pymatgen
data_HfNpO3
_symmetry_space_group_name_H-M   'P 1'
_cell_length_a   5.62660355
_cell_length_b   5.95032553
_cell_length_c   8.03645205
_cell_angle_alpha   90.00000000
_cell_angle_beta   90.00000000
_cell_angle_gamma   90.00000000
_symmetry_Int_Tables_number   1
_chemical_formula_structural   HfNpO3
_chemical_formula_sum   'Hf4 Np4 O12'
_cell_volume   269.06140127
_cell_formula_units_Z   4
loop_
 _symmetry_equiv_pos_site_id
 _symmetry_equiv_pos_as_xyz
  1  'x, y, z'
loop_
 _atom_site_type_symbol
 _atom_site_label
 _atom_site_symmetry_multiplicity
 _atom_site_fract_x
 _atom_site_fract_y
 _atom_site_fract_z
 _atom_site_occupancy
  Hf  Hf0  1  0.49999968  0.00000000  0.00000000  1
  Hf  Hf1  1  0.00000000  0.50000122  0.00000000  1
  Hf  Hf2  1  0.49999968  0.00000000  0.49999925  1
  Hf  Hf3  1  0.00000000  0.50000122  0.49999925  1
  Np  Np4  1  0.98795125  0.06511745  0.25000087  1
  Np  Np5  1  0.51204781  0.56511698  0.25000087  1
  Np  Np6  1  0.48795156  0.43488377  0.75000012  1
  Np  Np7  1  0.01204812  0.93488499  0.75000012  1
  O  O8  1  0.69051426  0.30044911  0.04653671  1
  O  O9  1  0.80948479  0.80045032  0.04653671  1
  O  O10  1  0.09942410  0.46776264  0.25000087  1
  O  O11  1  0.40057558  0.96776218  0.25000087  1
  O  O12  1  0.69051426  0.30044911  0.45346379  1
  O  O13  1  0.80948479  0.80045032  0.45346379  1
  O  O14  1  0.19051458  0.19954875  0.54653596  1
  O  O15  1  0.30948511  0.69954996  0.54653596  1
  O  O16  1  0.59942556  0.03223689  0.75000012  1
  O  O17  1  0.90057527  0.53223643  0.75000012  1
  O  O18  1  0.19051458  0.19954875  0.95346304  1
  O  O19  1  0.30948511  0.69954996  0.95346304  1
