# generated using pymatgen
data_VZnO3
_symmetry_space_group_name_H-M   'P 1'
_cell_length_a   5.15050600
_cell_length_b   5.15386400
_cell_length_c   7.64351200
_cell_angle_alpha   90.00000000
_cell_angle_beta   90.00000000
_cell_angle_gamma   90.00000000
_symmetry_Int_Tables_number   1
_chemical_formula_structural   VZnO3
_chemical_formula_sum   'V4 Zn4 O12'
_cell_volume   202.89708302
_cell_formula_units_Z   4
loop_
 _symmetry_equiv_pos_site_id
 _symmetry_equiv_pos_as_xyz
  1  'x, y, z'
loop_
 _atom_site_type_symbol
 _atom_site_label
 _atom_site_symmetry_multiplicity
 _atom_site_fract_x
 _atom_site_fract_y
 _atom_site_fract_z
 _atom_site_occupancy
  V  V0  1  0.00000000  0.00000000  0.50000000  1
  V  V1  1  0.50000000  0.50000000  0.50000000  1
  V  V2  1  0.50000000  0.50000000  0.00000000  1
  V  V3  1  0.00000000  0.00000000  0.00000000  1
  Zn  Zn4  1  0.96644200  0.49313600  0.75000000  1
  Zn  Zn5  1  0.53355800  0.99313600  0.25000000  1
  Zn  Zn6  1  0.46644200  0.00686400  0.75000000  1
  Zn  Zn7  1  0.03355800  0.50686400  0.25000000  1
  O  O8  1  0.42721400  0.61381100  0.25000000  1
  O  O9  1  0.07278600  0.11381100  0.75000000  1
  O  O10  1  0.92721400  0.88618900  0.25000000  1
  O  O11  1  0.57278600  0.38618900  0.75000000  1
  O  O12  1  0.69135000  0.82974700  0.93786500  1
  O  O13  1  0.80865000  0.32974700  0.06213500  1
  O  O14  1  0.19135000  0.67025300  0.56213500  1
  O  O15  1  0.30865000  0.17025300  0.43786500  1
  O  O16  1  0.69135000  0.82974700  0.56213500  1
  O  O17  1  0.80865000  0.32974700  0.43786500  1
  O  O18  1  0.30865000  0.17025300  0.06213500  1
  O  O19  1  0.19135000  0.67025300  0.93786500  1
