# generated using pymatgen
data_SbAuO3
_symmetry_space_group_name_H-M   'P 1'
_cell_length_a   5.58364220
_cell_length_b   5.66690888
_cell_length_c   7.83439171
_cell_angle_alpha   90.00000000
_cell_angle_beta   90.00000000
_cell_angle_gamma   90.00000000
_symmetry_Int_Tables_number   1
_chemical_formula_structural   SbAuO3
_chemical_formula_sum   'Sb4 Au4 O12'
_cell_volume   247.89575655
_cell_formula_units_Z   4
loop_
 _symmetry_equiv_pos_site_id
 _symmetry_equiv_pos_as_xyz
  1  'x, y, z'
loop_
 _atom_site_type_symbol
 _atom_site_label
 _atom_site_symmetry_multiplicity
 _atom_site_fract_x
 _atom_site_fract_y
 _atom_site_fract_z
 _atom_site_occupancy
  Au  Au0  1  0.99789166  0.00072703  0.24999899  1
  Au  Au1  1  0.50210775  0.50072801  0.24999899  1
  Au  Au2  1  0.49789365  0.49927219  0.74999952  1
  Au  Au3  1  0.00210794  0.99927317  0.74999952  1
  O  O4  1  0.73764934  0.26225056  0.05832361  1
  O  O5  1  0.76235007  0.76224977  0.05832361  1
  O  O6  1  0.10750689  0.49584175  0.24999899  1
  O  O7  1  0.39249291  0.99584096  0.24999899  1
  O  O8  1  0.73764934  0.26225056  0.44167692  1
  O  O9  1  0.76235007  0.76224977  0.44167692  1
  O  O10  1  0.23764954  0.23775043  0.55832414  1
  O  O11  1  0.26235026  0.73775141  0.55832414  1
  O  O12  1  0.60750669  0.00415923  0.74999952  1
  O  O13  1  0.89249451  0.50415845  0.74999952  1
  O  O14  1  0.23764954  0.23775043  0.94167490  1
  O  O15  1  0.26235026  0.73775141  0.94167490  1
  Sb  Sb16  1  0.49999980  0.00000000  0.00000000  1
  Sb  Sb17  1  0.00000000  0.50000098  0.00000000  1
  Sb  Sb18  1  0.49999980  0.00000000  0.50000053  1
  Sb  Sb19  1  0.00000000  0.50000098  0.50000053  1
