# generated using pymatgen
data_PmWO3
_symmetry_space_group_name_H-M   'P 1'
_cell_length_a   5.32125243
_cell_length_b   6.01371061
_cell_length_c   7.74078009
_cell_angle_alpha   90.00000000
_cell_angle_beta   90.00000000
_cell_angle_gamma   90.00000000
_symmetry_Int_Tables_number   1
_chemical_formula_structural   PmWO3
_chemical_formula_sum   'Pm4 W4 O12'
_cell_volume   247.70861817
_cell_formula_units_Z   4
loop_
 _symmetry_equiv_pos_site_id
 _symmetry_equiv_pos_as_xyz
  1  'x, y, z'
loop_
 _atom_site_type_symbol
 _atom_site_label
 _atom_site_symmetry_multiplicity
 _atom_site_fract_x
 _atom_site_fract_y
 _atom_site_fract_z
 _atom_site_occupancy
  O  O0  1  0.68399311  0.29860765  0.04496188  1
  O  O1  1  0.81600714  0.79860843  0.04496188  1
  O  O2  1  0.11705515  0.46455677  0.25000064  1
  O  O3  1  0.38294556  0.96455589  0.25000064  1
  O  O4  1  0.68399311  0.29860765  0.45503812  1
  O  O5  1  0.81600714  0.79860843  0.45503812  1
  O  O6  1  0.18399240  0.20139147  0.54496187  1
  O  O7  1  0.31600643  0.70139225  0.54496187  1
  O  O8  1  0.61705586  0.03544401  0.75000064  1
  O  O9  1  0.88294439  0.53544479  0.75000064  1
  O  O10  1  0.18399240  0.20139147  0.95503811  1
  O  O11  1  0.31600643  0.70139225  0.95503811  1
  Pm  Pm12  1  0.96535920  0.08149212  0.25000064  1
  Pm  Pm13  1  0.53464105  0.58149290  0.25000064  1
  Pm  Pm14  1  0.46536037  0.41850700  0.75000064  1
  Pm  Pm15  1  0.03464034  0.91850778  0.75000064  1
  W  W16  1  0.50000071  0.00000000  0.00000000  1
  W  W17  1  0.00000000  0.50000078  0.00000000  1
  W  W18  1  0.50000071  0.00000000  0.49999999  1
  W  W19  1  0.00000000  0.50000078  0.49999999  1
