# generated using pymatgen
data_YLuO3
_symmetry_space_group_name_H-M   'P 1'
_cell_length_a   5.60480100
_cell_length_b   5.89057500
_cell_length_c   8.21850600
_cell_angle_alpha   90.00000000
_cell_angle_beta   90.00000000
_cell_angle_gamma   90.00000000
_symmetry_Int_Tables_number   1
_chemical_formula_structural   YLuO3
_chemical_formula_sum   'Y4 Lu4 O12'
_cell_volume   271.33809019
_cell_formula_units_Z   4
loop_
 _symmetry_equiv_pos_site_id
 _symmetry_equiv_pos_as_xyz
  1  'x, y, z'
loop_
 _atom_site_type_symbol
 _atom_site_label
 _atom_site_symmetry_multiplicity
 _atom_site_fract_x
 _atom_site_fract_y
 _atom_site_fract_z
 _atom_site_occupancy
  Y  Y0  1  0.01508200  0.94328700  0.75000000  1
  Y  Y1  1  0.48491800  0.44328700  0.75000000  1
  Y  Y2  1  0.51508200  0.55671300  0.25000000  1
  Y  Y3  1  0.98491800  0.05671300  0.25000000  1
  Lu  Lu4  1  0.00000000  0.50000000  0.00000000  1
  Lu  Lu5  1  0.00000000  0.50000000  0.50000000  1
  Lu  Lu6  1  0.50000000  0.00000000  0.00000000  1
  Lu  Lu7  1  0.50000000  0.00000000  0.50000000  1
  O  O8  1  0.14046700  0.42801900  0.25000000  1
  O  O9  1  0.18129100  0.18526500  0.57256000  1
  O  O10  1  0.18129100  0.18526500  0.92744000  1
  O  O11  1  0.31870900  0.68526500  0.92744000  1
  O  O12  1  0.31870900  0.68526500  0.57256000  1
  O  O13  1  0.35953300  0.92801900  0.25000000  1
  O  O14  1  0.64046700  0.07198100  0.75000000  1
  O  O15  1  0.68129100  0.31473500  0.42744000  1
  O  O16  1  0.68129100  0.31473500  0.07256000  1
  O  O17  1  0.81870900  0.81473500  0.07256000  1
  O  O18  1  0.81870900  0.81473500  0.42744000  1
  O  O19  1  0.85953300  0.57198100  0.75000000  1
