# generated using pymatgen
data_KErO3
_symmetry_space_group_name_H-M   'P 1'
_cell_length_a   6.04153210
_cell_length_b   6.29077380
_cell_length_c   8.72821477
_cell_angle_alpha   90.00000000
_cell_angle_beta   90.00000000
_cell_angle_gamma   90.00000000
_symmetry_Int_Tables_number   1
_chemical_formula_structural   KErO3
_chemical_formula_sum   'K4 Er4 O12'
_cell_volume   331.72376139
_cell_formula_units_Z   4
loop_
 _symmetry_equiv_pos_site_id
 _symmetry_equiv_pos_as_xyz
  1  'x, y, z'
loop_
 _atom_site_type_symbol
 _atom_site_label
 _atom_site_symmetry_multiplicity
 _atom_site_fract_x
 _atom_site_fract_y
 _atom_site_fract_z
 _atom_site_occupancy
  Er  Er0  1  0.50000065  0.00000000  0.00000000  1
  Er  Er1  1  0.00000000  0.50000049  0.00000000  1
  Er  Er2  1  0.50000065  0.00000000  0.50000030  1
  Er  Er3  1  0.00000000  0.50000049  0.50000030  1
  K  K4  1  0.99546438  0.01314147  0.24999958  1
  K  K5  1  0.50453758  0.51314196  0.24999958  1
  K  K6  1  0.49546538  0.48686061  0.74999988  1
  K  K7  1  0.00453693  0.98685793  0.74999988  1
  O  O8  1  0.72825732  0.27016072  0.01843676  1
  O  O9  1  0.77174298  0.77016122  0.01843676  1
  O  O10  1  0.03419166  0.48714834  0.24999958  1
  O  O11  1  0.46580900  0.98714883  0.24999958  1
  O  O12  1  0.72825732  0.27016072  0.48156354  1
  O  O13  1  0.77174298  0.77016122  0.48156354  1
  O  O14  1  0.22825501  0.22983977  0.51843706  1
  O  O15  1  0.27174398  0.72983867  0.51843706  1
  O  O16  1  0.53419066  0.01285216  0.74999988  1
  O  O17  1  0.96580799  0.51285106  0.74999988  1
  O  O18  1  0.22825501  0.22983977  0.98156269  1
  O  O19  1  0.27174398  0.72983867  0.98156269  1
