# generated using pymatgen
data_SnPbO3
_symmetry_space_group_name_H-M   'P 1'
_cell_length_a   5.79639648
_cell_length_b   5.83529133
_cell_length_c   8.19487388
_cell_angle_alpha   90.00000000
_cell_angle_beta   90.00000000
_cell_angle_gamma   90.00000000
_symmetry_Int_Tables_number   1
_chemical_formula_structural   SnPbO3
_chemical_formula_sum   'Sn4 Pb4 O12'
_cell_volume   277.18064541
_cell_formula_units_Z   4
loop_
 _symmetry_equiv_pos_site_id
 _symmetry_equiv_pos_as_xyz
  1  'x, y, z'
loop_
 _atom_site_type_symbol
 _atom_site_label
 _atom_site_symmetry_multiplicity
 _atom_site_fract_x
 _atom_site_fract_y
 _atom_site_fract_z
 _atom_site_occupancy
  O  O0  1  0.70716867  0.29261949  0.04315503  1
  O  O1  1  0.79283051  0.79262024  0.04315503  1
  O  O2  1  0.08484409  0.47591283  0.25000019  1
  O  O3  1  0.41515449  0.97591357  0.25000019  1
  O  O4  1  0.70716867  0.29261949  0.45684413  1
  O  O5  1  0.79283051  0.79262024  0.45684413  1
  O  O6  1  0.20717009  0.20738125  0.54315540  1
  O  O7  1  0.29283021  0.70738028  0.54315540  1
  O  O8  1  0.58484440  0.02408791  0.75000056  1
  O  O9  1  0.91515479  0.52408694  0.75000056  1
  O  O10  1  0.20717009  0.20738125  0.95684450  1
  O  O11  1  0.29283021  0.70738028  0.95684450  1
  Pb  Pb12  1  0.99361733  0.03224346  0.25000019  1
  Pb  Pb13  1  0.50638185  0.53224421  0.25000019  1
  Pb  Pb14  1  0.49361703  0.46775728  0.75000056  1
  Pb  Pb15  1  0.00638155  0.96775631  0.75000056  1
  Sn  Sn16  1  0.50000030  0.00000000  0.00000000  1
  Sn  Sn17  1  0.00000000  0.50000074  0.00000000  1
  Sn  Sn18  1  0.50000030  0.00000000  0.49999915  1
  Sn  Sn19  1  0.00000000  0.50000074  0.49999915  1
