# generated using pymatgen
data_SmInO3
_symmetry_space_group_name_H-M   'P 1'
_cell_length_a   5.62297300
_cell_length_b   5.95257100
_cell_length_c   8.23891700
_cell_angle_alpha   90.00000000
_cell_angle_beta   90.00000000
_cell_angle_gamma   90.00000000
_symmetry_Int_Tables_number   1
_chemical_formula_structural   SmInO3
_chemical_formula_sum   'Sm4 In4 O12'
_cell_volume   275.76599390
_cell_formula_units_Z   4
loop_
 _symmetry_equiv_pos_site_id
 _symmetry_equiv_pos_as_xyz
  1  'x, y, z'
loop_
 _atom_site_type_symbol
 _atom_site_label
 _atom_site_symmetry_multiplicity
 _atom_site_fract_x
 _atom_site_fract_y
 _atom_site_fract_z
 _atom_site_occupancy
  Sm  Sm0  1  0.97958300  0.06453700  0.25000000  1
  Sm  Sm1  1  0.47958300  0.43546300  0.75000000  1
  Sm  Sm2  1  0.52041700  0.56453700  0.25000000  1
  Sm  Sm3  1  0.02041700  0.93546300  0.75000000  1
  In  In4  1  0.50000000  0.00000000  0.00000000  1
  In  In5  1  0.50000000  0.00000000  0.50000000  1
  In  In6  1  0.00000000  0.50000000  0.00000000  1
  In  In7  1  0.00000000  0.50000000  0.50000000  1
  O  O8  1  0.63467800  0.06224800  0.75000000  1
  O  O9  1  0.18738100  0.19049100  0.56838000  1
  O  O10  1  0.18738100  0.19049100  0.93162000  1
  O  O11  1  0.68738100  0.30950900  0.43162000  1
  O  O12  1  0.68738100  0.30950900  0.06838000  1
  O  O13  1  0.13467800  0.43775200  0.25000000  1
  O  O14  1  0.86532200  0.56224800  0.75000000  1
  O  O15  1  0.31261900  0.69049100  0.93162000  1
  O  O16  1  0.31261900  0.69049100  0.56838000  1
  O  O17  1  0.81261900  0.80950900  0.06838000  1
  O  O18  1  0.81261900  0.80950900  0.43162000  1
  O  O19  1  0.36532200  0.93775200  0.25000000  1
