# generated using pymatgen
data_SmInO3
_symmetry_space_group_name_H-M   'P 1'
_cell_length_a   5.87500000
_cell_length_b   8.10000000
_cell_length_c   5.58700000
_cell_angle_alpha   90.00000000
_cell_angle_beta   90.00000000
_cell_angle_gamma   90.00000000
_symmetry_Int_Tables_number   1
_chemical_formula_structural   SmInO3
_chemical_formula_sum   'Sm4 In4 O12'
_cell_volume   265.87136250
_cell_formula_units_Z   4
loop_
 _symmetry_equiv_pos_site_id
 _symmetry_equiv_pos_as_xyz
  1  'x, y, z'
loop_
 _atom_site_type_symbol
 _atom_site_label
 _atom_site_symmetry_multiplicity
 _atom_site_fract_x
 _atom_site_fract_y
 _atom_site_fract_z
 _atom_site_occupancy
  In  In0  1  0.93483401  0.75000000  0.00562813  1
  In  In1  1  0.43483401  0.75000000  0.49437187  1
  In  In2  1  0.56516599  0.25000000  0.50562813  1
  In  In3  1  0.06516599  0.25000000  0.99437187  1
  O  O4  1  0.45912484  0.25000000  0.12170737  1
  O  O5  1  0.14882781  0.54679994  0.17942133  1
  O  O6  1  0.14882781  0.95320006  0.17942133  1
  O  O7  1  0.64882781  0.54679994  0.32057867  1
  O  O8  1  0.64882781  0.95320006  0.32057867  1
  O  O9  1  0.95912484  0.25000000  0.37829263  1
  O  O10  1  0.04087516  0.75000000  0.62170737  1
  O  O11  1  0.35117219  0.04679994  0.67942133  1
  O  O12  1  0.35117219  0.45320006  0.67942133  1
  O  O13  1  0.85117219  0.04679994  0.82057867  1
  O  O14  1  0.85117219  0.45320006  0.82057867  1
  O  O15  1  0.54087516  0.75000000  0.87829263  1
  Sm  Sm16  1  0.50000000  0.00000000  0.00000000  1
  Sm  Sm17  1  0.50000000  0.50000000  0.00000000  1
  Sm  Sm18  1  0.00000000  0.00000000  0.50000000  1
  Sm  Sm19  1  0.00000000  0.50000000  0.50000000  1
