# generated using pymatgen
data_AlTlO3
_symmetry_space_group_name_H-M   'P 1'
_cell_length_a   5.25126000
_cell_length_b   5.36046800
_cell_length_c   7.61239100
_cell_angle_alpha   90.00000000
_cell_angle_beta   90.00000000
_cell_angle_gamma   90.00000000
_symmetry_Int_Tables_number   1
_chemical_formula_structural   AlTlO3
_chemical_formula_sum   'Al4 Tl4 O12'
_cell_volume   214.28280192
_cell_formula_units_Z   4
loop_
 _symmetry_equiv_pos_site_id
 _symmetry_equiv_pos_as_xyz
  1  'x, y, z'
loop_
 _atom_site_type_symbol
 _atom_site_label
 _atom_site_symmetry_multiplicity
 _atom_site_fract_x
 _atom_site_fract_y
 _atom_site_fract_z
 _atom_site_occupancy
  Al  Al0  1  0.00000000  0.50000000  0.00000000  1
  Al  Al1  1  0.00000000  0.50000000  0.50000000  1
  Al  Al2  1  0.50000000  0.00000000  0.00000000  1
  Al  Al3  1  0.50000000  0.00000000  0.50000000  1
  Tl  Tl4  1  0.01307800  0.96002600  0.75000000  1
  Tl  Tl5  1  0.48692200  0.46002600  0.75000000  1
  Tl  Tl6  1  0.51307800  0.53997400  0.25000000  1
  Tl  Tl7  1  0.98692200  0.03997400  0.25000000  1
  O  O8  1  0.09681800  0.46655000  0.25000000  1
  O  O9  1  0.20658600  0.20906900  0.55134900  1
  O  O10  1  0.20658600  0.20906900  0.94865100  1
  O  O11  1  0.29341400  0.70906900  0.94865100  1
  O  O12  1  0.29341400  0.70906900  0.55134900  1
  O  O13  1  0.40318200  0.96655000  0.25000000  1
  O  O14  1  0.59681800  0.03345000  0.75000000  1
  O  O15  1  0.70658600  0.29093100  0.05134900  1
  O  O16  1  0.70658600  0.29093100  0.44865100  1
  O  O17  1  0.79341400  0.79093100  0.05134900  1
  O  O18  1  0.79341400  0.79093100  0.44865100  1
  O  O19  1  0.90318200  0.53345000  0.75000000  1
