# generated using pymatgen
data_EuSnO3
_symmetry_space_group_name_H-M   'P 1'
_cell_length_a   5.58686118
_cell_length_b   5.71563985
_cell_length_c   7.98869925
_cell_angle_alpha   90.00000000
_cell_angle_beta   90.00000000
_cell_angle_gamma   90.00000000
_symmetry_Int_Tables_number   1
_chemical_formula_structural   EuSnO3
_chemical_formula_sum   'Eu4 Sn4 O12'
_cell_volume   255.09902989
_cell_formula_units_Z   4
loop_
 _symmetry_equiv_pos_site_id
 _symmetry_equiv_pos_as_xyz
  1  'x, y, z'
loop_
 _atom_site_type_symbol
 _atom_site_label
 _atom_site_symmetry_multiplicity
 _atom_site_fract_x
 _atom_site_fract_y
 _atom_site_fract_z
 _atom_site_occupancy
  Eu  Eu0  1  0.98652532  0.04906012  0.25000065  1
  Eu  Eu1  1  0.51347616  0.54906014  0.25000065  1
  Eu  Eu2  1  0.48652363  0.45093989  0.75000070  1
  Eu  Eu3  1  0.01347447  0.95093815  0.75000070  1
  O  O4  1  0.70328399  0.29474915  0.04803410  1
  O  O5  1  0.79671749  0.79474917  0.04803410  1
  O  O6  1  0.09065019  0.47223234  0.25000065  1
  O  O7  1  0.40935150  0.97223061  0.25000065  1
  O  O8  1  0.70328399  0.29474915  0.45196594  1
  O  O9  1  0.79671749  0.79474917  0.45196594  1
  O  O10  1  0.20328230  0.20525086  0.54803415  1
  O  O11  1  0.29671580  0.70525087  0.54803415  1
  O  O12  1  0.59064829  0.02776767  0.75000070  1
  O  O13  1  0.90935139  0.52776768  0.75000070  1
  O  O14  1  0.20328230  0.20525086  0.95196474  1
  O  O15  1  0.29671580  0.70525087  0.95196474  1
  Sn  Sn16  1  0.49999989  0.00000000  0.00000000  1
  Sn  Sn17  1  0.00000000  0.50000001  0.00000000  1
  Sn  Sn18  1  0.49999989  0.00000000  0.50000005  1
  Sn  Sn19  1  0.00000000  0.50000001  0.50000005  1
