# generated using pymatgen
data_NaVO3
_symmetry_space_group_name_H-M   'P 1'
_cell_length_a   5.21202232
_cell_length_b   5.23538139
_cell_length_c   7.40234026
_cell_angle_alpha   90.00000000
_cell_angle_beta   90.00000000
_cell_angle_gamma   90.00000000
_symmetry_Int_Tables_number   1
_chemical_formula_structural   NaVO3
_chemical_formula_sum   'Na4 V4 O12'
_cell_volume   201.98710121
_cell_formula_units_Z   4
loop_
 _symmetry_equiv_pos_site_id
 _symmetry_equiv_pos_as_xyz
  1  'x, y, z'
loop_
 _atom_site_type_symbol
 _atom_site_label
 _atom_site_symmetry_multiplicity
 _atom_site_fract_x
 _atom_site_fract_y
 _atom_site_fract_z
 _atom_site_occupancy
  Na  Na0  1  0.99695851  0.02026404  0.24999932  1
  Na  Na1  1  0.50304274  0.52026391  0.24999932  1
  Na  Na2  1  0.49695873  0.47973582  0.74999930  1
  Na  Na3  1  0.00304296  0.97973760  0.74999930  1
  O  O4  1  0.71624981  0.28300899  0.02808166  1
  O  O5  1  0.78375144  0.78300695  0.02808166  1
  O  O6  1  0.05545640  0.49293639  0.24999932  1
  O  O7  1  0.44454338  0.99293817  0.24999932  1
  O  O8  1  0.71624981  0.28300899  0.47191697  1
  O  O9  1  0.78375144  0.78300695  0.47191697  1
  O  O10  1  0.21624811  0.21699279  0.52808299  1
  O  O11  1  0.28375166  0.71699265  0.52808299  1
  O  O12  1  0.55545618  0.00706348  0.74999930  1
  O  O13  1  0.94454315  0.50706334  0.74999930  1
  O  O14  1  0.21624811  0.21699279  0.97191695  1
  O  O15  1  0.28375166  0.71699265  0.97191695  1
  V  V16  1  0.49999978  0.00000000  0.00000000  1
  V  V17  1  0.00000000  0.49999987  0.00000000  1
  V  V18  1  0.49999978  0.00000000  0.49999998  1
  V  V19  1  0.00000000  0.49999987  0.49999998  1
