# generated using pymatgen
data_CaMnO3
_symmetry_space_group_name_H-M   'P 1'
_cell_length_a   5.33344400
_cell_length_b   5.39895300
_cell_length_c   7.57146500
_cell_angle_alpha   90.00000000
_cell_angle_beta   90.00000000
_cell_angle_gamma   90.00000000
_symmetry_Int_Tables_number   1
_chemical_formula_structural   CaMnO3
_chemical_formula_sum   'Ca4 Mn4 O12'
_cell_volume   218.02043677
_cell_formula_units_Z   4
loop_
 _symmetry_equiv_pos_site_id
 _symmetry_equiv_pos_as_xyz
  1  'x, y, z'
loop_
 _atom_site_type_symbol
 _atom_site_label
 _atom_site_symmetry_multiplicity
 _atom_site_fract_x
 _atom_site_fract_y
 _atom_site_fract_z
 _atom_site_occupancy
  Ca  Ca0  1  0.50824500  0.54378700  0.25000000  1
  Ca  Ca1  1  0.99175500  0.04378700  0.25000000  1
  Ca  Ca2  1  0.49175500  0.45621300  0.75000000  1
  Ca  Ca3  1  0.00824500  0.95621300  0.75000000  1
  Mn  Mn4  1  0.00000000  0.50000000  0.00000000  1
  Mn  Mn5  1  0.50000000  0.00000000  0.50000000  1
  Mn  Mn6  1  0.00000000  0.50000000  0.50000000  1
  Mn  Mn7  1  0.50000000  0.00000000  0.00000000  1
  O  O8  1  0.42225300  0.98152900  0.25000000  1
  O  O9  1  0.07774700  0.48152900  0.25000000  1
  O  O10  1  0.57774700  0.01847100  0.75000000  1
  O  O11  1  0.92225300  0.51847100  0.75000000  1
  O  O12  1  0.79401500  0.79201500  0.04008500  1
  O  O13  1  0.70598500  0.29201500  0.45991500  1
  O  O14  1  0.20598500  0.20798500  0.54008500  1
  O  O15  1  0.29401500  0.70798500  0.95991500  1
  O  O16  1  0.20598500  0.20798500  0.95991500  1
  O  O17  1  0.29401500  0.70798500  0.54008500  1
  O  O18  1  0.79401500  0.79201500  0.45991500  1
  O  O19  1  0.70598500  0.29201500  0.04008500  1
