# generated using pymatgen
data_ZrPbO3
_symmetry_space_group_name_H-M   'P 1'
_cell_length_a   5.88932500
_cell_length_b   5.92742000
_cell_length_c   8.35430900
_cell_angle_alpha   90.00000000
_cell_angle_beta   90.00000000
_cell_angle_gamma   90.00000000
_symmetry_Int_Tables_number   1
_chemical_formula_structural   ZrPbO3
_chemical_formula_sum   'Zr4 Pb4 O12'
_cell_volume   291.63641905
_cell_formula_units_Z   4
loop_
 _symmetry_equiv_pos_site_id
 _symmetry_equiv_pos_as_xyz
  1  'x, y, z'
loop_
 _atom_site_type_symbol
 _atom_site_label
 _atom_site_symmetry_multiplicity
 _atom_site_fract_x
 _atom_site_fract_y
 _atom_site_fract_z
 _atom_site_occupancy
  Zr  Zr0  1  0.00000000  0.00000000  0.00000000  1
  Zr  Zr1  1  0.00000000  0.00000000  0.50000000  1
  Zr  Zr2  1  0.50000000  0.50000000  0.00000000  1
  Zr  Zr3  1  0.50000000  0.50000000  0.50000000  1
  Pb  Pb4  1  0.00692700  0.52386200  0.25000000  1
  Pb  Pb5  1  0.49307300  0.02386200  0.25000000  1
  Pb  Pb6  1  0.50692700  0.97613800  0.75000000  1
  Pb  Pb7  1  0.99307300  0.47613800  0.75000000  1
  O  O8  1  0.07722900  0.01578200  0.75000000  1
  O  O9  1  0.21150900  0.28751200  0.04019200  1
  O  O10  1  0.21150900  0.28751200  0.45980800  1
  O  O11  1  0.28849100  0.78751200  0.04019200  1
  O  O12  1  0.28849100  0.78751200  0.45980800  1
  O  O13  1  0.42277100  0.51578200  0.75000000  1
  O  O14  1  0.57722900  0.48421800  0.25000000  1
  O  O15  1  0.71150900  0.21248800  0.54019200  1
  O  O16  1  0.71150900  0.21248800  0.95980800  1
  O  O17  1  0.78849100  0.71248800  0.54019200  1
  O  O18  1  0.78849100  0.71248800  0.95980800  1
  O  O19  1  0.92277100  0.98421800  0.25000000  1
