# generated using pymatgen
data_RbAcO3
_symmetry_space_group_name_H-M   'P 1'
_cell_length_a   6.45446940
_cell_length_b   6.44923631
_cell_length_c   9.14689028
_cell_angle_alpha   90.00000000
_cell_angle_beta   90.00000000
_cell_angle_gamma   90.00000000
_symmetry_Int_Tables_number   1
_chemical_formula_structural   RbAcO3
_chemical_formula_sum   'Rb4 Ac4 O12'
_cell_volume   380.75209880
_cell_formula_units_Z   4
loop_
 _symmetry_equiv_pos_site_id
 _symmetry_equiv_pos_as_xyz
  1  'x, y, z'
loop_
 _atom_site_type_symbol
 _atom_site_label
 _atom_site_symmetry_multiplicity
 _atom_site_fract_x
 _atom_site_fract_y
 _atom_site_fract_z
 _atom_site_occupancy
  Ac  Ac0  1  0.49999927  0.00000000  0.00000000  1
  Ac  Ac1  1  0.00000000  0.50000029  0.00000000  1
  Ac  Ac2  1  0.49999927  0.00000000  0.49999944  1
  Ac  Ac3  1  0.00000000  0.50000029  0.49999944  1
  O  O4  1  0.73868039  0.26125264  0.01290056  1
  O  O5  1  0.76132052  0.76125292  0.01290056  1
  O  O6  1  0.02506170  0.49764962  0.24999972  1
  O  O7  1  0.47493757  0.99764991  0.24999972  1
  O  O8  1  0.73868039  0.26125264  0.48709888  1
  O  O9  1  0.76132052  0.76125292  0.48709888  1
  O  O10  1  0.23867957  0.23874765  0.51290109  1
  O  O11  1  0.26131970  0.73874793  0.51290109  1
  O  O12  1  0.52506252  0.00235067  0.74999916  1
  O  O13  1  0.97493684  0.50235095  0.74999916  1
  O  O14  1  0.23867957  0.23874765  0.98709832  1
  O  O15  1  0.26131970  0.73874793  0.98709832  1
  Rb  Rb16  1  0.99940980  0.00251813  0.24999972  1
  Rb  Rb17  1  0.50059111  0.50251686  0.24999972  1
  Rb  Rb18  1  0.49940898  0.49748216  0.74999916  1
  Rb  Rb19  1  0.00059029  0.99748089  0.74999916  1
