# generated using pymatgen
data_TiMnO3
_symmetry_space_group_name_H-M   'P 1'
_cell_length_a   5.20589800
_cell_length_b   5.39842700
_cell_length_c   7.56134700
_cell_angle_alpha   90.00000000
_cell_angle_beta   90.00000000
_cell_angle_gamma   90.00006486
_symmetry_Int_Tables_number   1
_chemical_formula_structural   TiMnO3
_chemical_formula_sum   'Ti4 Mn4 O12'
_cell_volume   212.50152767
_cell_formula_units_Z   4
loop_
 _symmetry_equiv_pos_site_id
 _symmetry_equiv_pos_as_xyz
  1  'x, y, z'
loop_
 _atom_site_type_symbol
 _atom_site_label
 _atom_site_symmetry_multiplicity
 _atom_site_fract_x
 _atom_site_fract_y
 _atom_site_fract_z
 _atom_site_occupancy
  Ti  Ti0  1  0.50000000  0.00000100  0.50000000  1
  Ti  Ti1  1  0.00000000  0.50000000  0.00000000  1
  Ti  Ti2  1  0.50000000  0.00000100  0.00000000  1
  Ti  Ti3  1  0.00000000  0.50000000  0.50000000  1
  Mn  Mn4  1  0.51235500  0.55237300  0.24999900  1
  Mn  Mn5  1  0.48764700  0.44761800  0.75000200  1
  Mn  Mn6  1  0.01237700  0.94759900  0.75000000  1
  Mn  Mn7  1  0.98762200  0.05240300  0.25000000  1
  O  O8  1  0.88829500  0.54358500  0.75000000  1
  O  O9  1  0.61171500  0.04357600  0.75000000  1
  O  O10  1  0.11170500  0.45641600  0.25000000  1
  O  O11  1  0.38828500  0.95642500  0.25000000  1
  O  O12  1  0.80954400  0.80540700  0.05864800  1
  O  O13  1  0.30953500  0.69460400  0.94135100  1
  O  O14  1  0.19045600  0.19459400  0.94135100  1
  O  O15  1  0.80954400  0.80540700  0.44135100  1
  O  O16  1  0.19045600  0.19459400  0.55864800  1
  O  O17  1  0.69046500  0.30539700  0.05864800  1
  O  O18  1  0.69046500  0.30539700  0.44135100  1
  O  O19  1  0.30953500  0.69460400  0.55864800  1
