# generated using pymatgen
data_LuVO3
_symmetry_space_group_name_H-M   'P 1'
_cell_length_a   5.24197900
_cell_length_b   5.65867200
_cell_length_c   7.59342200
_cell_angle_alpha   90.00000000
_cell_angle_beta   90.00000000
_cell_angle_gamma   90.00000000
_symmetry_Int_Tables_number   1
_chemical_formula_structural   LuVO3
_chemical_formula_sum   'Lu4 V4 O12'
_cell_volume   225.24094157
_cell_formula_units_Z   4
loop_
 _symmetry_equiv_pos_site_id
 _symmetry_equiv_pos_as_xyz
  1  'x, y, z'
loop_
 _atom_site_type_symbol
 _atom_site_label
 _atom_site_symmetry_multiplicity
 _atom_site_fract_x
 _atom_site_fract_y
 _atom_site_fract_z
 _atom_site_occupancy
  Lu  Lu0  1  0.02291200  0.92869200  0.75000000  1
  Lu  Lu1  1  0.47708800  0.42869200  0.75000000  1
  Lu  Lu2  1  0.52291200  0.57130800  0.25000000  1
  Lu  Lu3  1  0.97708800  0.07130800  0.25000000  1
  V  V4  1  0.00000000  0.50000000  0.50000000  1
  V  V5  1  0.00000000  0.50000000  0.00000000  1
  V  V6  1  0.50000000  0.00000000  0.50000000  1
  V  V7  1  0.50000000  0.00000000  0.00000000  1
  O  O8  1  0.12963000  0.44547700  0.25000000  1
  O  O9  1  0.19034400  0.18611200  0.93477000  1
  O  O10  1  0.19034400  0.18611200  0.56523000  1
  O  O11  1  0.30965600  0.68611100  0.93477000  1
  O  O12  1  0.30965600  0.68611100  0.56523000  1
  O  O13  1  0.37037000  0.94547700  0.25000000  1
  O  O14  1  0.62963000  0.05452300  0.75000000  1
  O  O15  1  0.69034400  0.31388900  0.43477000  1
  O  O16  1  0.69034400  0.31388900  0.06523000  1
  O  O17  1  0.80965600  0.81388900  0.43477000  1
  O  O18  1  0.80965600  0.81388900  0.06523000  1
  O  O19  1  0.87037000  0.55452300  0.75000000  1
