# generated using pymatgen
data_EuAgO3
_symmetry_space_group_name_H-M   'P 1'
_cell_length_a   5.53781589
_cell_length_b   5.80986141
_cell_length_c   7.84303936
_cell_angle_alpha   90.00000000
_cell_angle_beta   90.00000000
_cell_angle_gamma   90.00000000
_symmetry_Int_Tables_number   1
_chemical_formula_structural   EuAgO3
_chemical_formula_sum   'Eu4 Ag4 O12'
_cell_volume   252.34150001
_cell_formula_units_Z   4
loop_
 _symmetry_equiv_pos_site_id
 _symmetry_equiv_pos_as_xyz
  1  'x, y, z'
loop_
 _atom_site_type_symbol
 _atom_site_label
 _atom_site_symmetry_multiplicity
 _atom_site_fract_x
 _atom_site_fract_y
 _atom_site_fract_z
 _atom_site_occupancy
  Ag  Ag0  1  0.50000037  0.00000000  0.00000000  1
  Ag  Ag1  1  0.00000000  0.49999988  0.00000000  1
  Ag  Ag2  1  0.50000037  0.00000000  0.50000004  1
  Ag  Ag3  1  0.00000000  0.49999988  0.50000004  1
  Eu  Eu4  1  0.98091560  0.06556955  0.25000002  1
  Eu  Eu5  1  0.51908371  0.56556943  0.25000002  1
  Eu  Eu6  1  0.48091704  0.43443033  0.75000006  1
  Eu  Eu7  1  0.01908334  0.93443021  0.75000006  1
  O  O8  1  0.69709793  0.29856478  0.05060666  1
  O  O9  1  0.80290138  0.79856466  0.05060666  1
  O  O10  1  0.10285282  0.46664624  0.25000002  1
  O  O11  1  0.39714755  0.96664612  0.25000002  1
  O  O12  1  0.69709793  0.29856478  0.44939338  1
  O  O13  1  0.80290138  0.79856466  0.44939338  1
  O  O14  1  0.19709756  0.20143510  0.55060670  1
  O  O15  1  0.30290281  0.70143670  0.55060670  1
  O  O16  1  0.60285139  0.03335364  0.75000006  1
  O  O17  1  0.89714792  0.53335351  0.75000006  1
  O  O18  1  0.19709756  0.20143510  0.94939342  1
  O  O19  1  0.30290281  0.70143670  0.94939342  1
