# generated using pymatgen
data_LiFeO3
_symmetry_space_group_name_H-M   'P 1'
_cell_length_a   4.86852020
_cell_length_b   5.05221189
_cell_length_c   6.97916792
_cell_angle_alpha   90.00000000
_cell_angle_beta   90.00000000
_cell_angle_gamma   90.00000000
_symmetry_Int_Tables_number   1
_chemical_formula_structural   LiFeO3
_chemical_formula_sum   'Li4 Fe4 O12'
_cell_volume   171.66516705
_cell_formula_units_Z   4
loop_
 _symmetry_equiv_pos_site_id
 _symmetry_equiv_pos_as_xyz
  1  'x, y, z'
loop_
 _atom_site_type_symbol
 _atom_site_label
 _atom_site_symmetry_multiplicity
 _atom_site_fract_x
 _atom_site_fract_y
 _atom_site_fract_z
 _atom_site_occupancy
  Fe  Fe0  1  0.49999998  0.00000000  0.00000000  1
  Fe  Fe1  1  0.00000000  0.50000080  0.00000000  1
  Fe  Fe2  1  0.49999998  0.00000000  0.49999943  1
  Fe  Fe3  1  0.00000000  0.50000080  0.49999943  1
  Li  Li4  1  0.98293933  0.06810680  0.24999972  1
  Li  Li5  1  0.51706060  0.56810761  0.24999972  1
  Li  Li6  1  0.48293935  0.43189400  0.75000058  1
  Li  Li7  1  0.01706063  0.93189282  0.75000058  1
  O  O8  1  0.68543415  0.30535338  0.06827605  1
  O  O9  1  0.81456579  0.80535221  0.06827605  1
  O  O10  1  0.13085906  0.45328661  0.24999972  1
  O  O11  1  0.36914091  0.95328543  0.24999972  1
  O  O12  1  0.68543415  0.30535338  0.43172338  1
  O  O13  1  0.81456579  0.80535221  0.43172338  1
  O  O14  1  0.18543417  0.19464742  0.56827691  1
  O  O15  1  0.31456581  0.69464624  0.56827691  1
  O  O16  1  0.63085904  0.04671419  0.75000058  1
  O  O17  1  0.86914089  0.54671302  0.75000058  1
  O  O18  1  0.18543417  0.19464742  0.93172282  1
  O  O19  1  0.31456581  0.69464624  0.93172282  1
