# generated using pymatgen
data_DyInO3
_symmetry_space_group_name_H-M   'P 1'
_cell_length_a   5.52177700
_cell_length_b   5.86660700
_cell_length_c   8.19148600
_cell_angle_alpha   90.00000000
_cell_angle_beta   90.00000000
_cell_angle_gamma   90.00000000
_symmetry_Int_Tables_number   1
_chemical_formula_structural   DyInO3
_chemical_formula_sum   'Dy4 In4 O12'
_cell_volume   265.35578060
_cell_formula_units_Z   4
loop_
 _symmetry_equiv_pos_site_id
 _symmetry_equiv_pos_as_xyz
  1  'x, y, z'
loop_
 _atom_site_type_symbol
 _atom_site_label
 _atom_site_symmetry_multiplicity
 _atom_site_fract_x
 _atom_site_fract_y
 _atom_site_fract_z
 _atom_site_occupancy
  Dy  Dy0  1  0.02114900  0.93501500  0.75000000  1
  Dy  Dy1  1  0.47885100  0.43501500  0.75000000  1
  Dy  Dy2  1  0.52114900  0.56498500  0.25000000  1
  Dy  Dy3  1  0.97885100  0.06498500  0.25000000  1
  In  In4  1  0.00000000  0.50000000  0.00000000  1
  In  In5  1  0.00000000  0.50000000  0.50000000  1
  In  In6  1  0.50000000  0.00000000  0.00000000  1
  In  In7  1  0.50000000  0.00000000  0.50000000  1
  O  O8  1  0.14575200  0.42814500  0.25000000  1
  O  O9  1  0.18344400  0.18702200  0.57395000  1
  O  O10  1  0.18344400  0.18702200  0.92605000  1
  O  O11  1  0.31655600  0.68702200  0.57395000  1
  O  O12  1  0.31655600  0.68702200  0.92605000  1
  O  O13  1  0.35424800  0.92814500  0.25000000  1
  O  O14  1  0.64575200  0.07185500  0.75000000  1
  O  O15  1  0.68344400  0.31297800  0.07395000  1
  O  O16  1  0.68344400  0.31297800  0.42605000  1
  O  O17  1  0.81655600  0.81297800  0.07395000  1
  O  O18  1  0.81655600  0.81297800  0.42605000  1
  O  O19  1  0.85424800  0.57185500  0.75000000  1
