# generated using pymatgen
data_MgWO3
_symmetry_space_group_name_H-M   'P 1'
_cell_length_a   5.30519500
_cell_length_b   5.42532600
_cell_length_c   7.89805900
_cell_angle_alpha   90.00000000
_cell_angle_beta   90.00000000
_cell_angle_gamma   90.00000000
_symmetry_Int_Tables_number   1
_chemical_formula_structural   MgWO3
_chemical_formula_sum   'Mg4 W4 O12'
_cell_volume   227.32519105
_cell_formula_units_Z   4
loop_
 _symmetry_equiv_pos_site_id
 _symmetry_equiv_pos_as_xyz
  1  'x, y, z'
loop_
 _atom_site_type_symbol
 _atom_site_label
 _atom_site_symmetry_multiplicity
 _atom_site_fract_x
 _atom_site_fract_y
 _atom_site_fract_z
 _atom_site_occupancy
  Mg  Mg0  1  0.01109600  0.03253500  0.25000000  1
  Mg  Mg1  1  0.48890400  0.53253500  0.25000000  1
  Mg  Mg2  1  0.98890400  0.96746500  0.75000000  1
  Mg  Mg3  1  0.51109600  0.46746500  0.75000000  1
  W  W4  1  0.50000000  0.00000000  0.00000000  1
  W  W5  1  0.00000000  0.50000000  0.50000000  1
  W  W6  1  0.50000000  0.00000000  0.50000000  1
  W  W7  1  0.00000000  0.50000000  0.00000000  1
  O  O8  1  0.66786100  0.32183900  0.42787200  1
  O  O9  1  0.83213900  0.82183900  0.07212800  1
  O  O10  1  0.33213900  0.67816100  0.57212800  1
  O  O11  1  0.16786100  0.17816100  0.92787200  1
  O  O12  1  0.16786100  0.17816100  0.57212800  1
  O  O13  1  0.33213900  0.67816100  0.92787200  1
  O  O14  1  0.83213900  0.82183900  0.42787200  1
  O  O15  1  0.66786100  0.32183900  0.07212800  1
  O  O16  1  0.12709100  0.40475600  0.25000000  1
  O  O17  1  0.37290900  0.90475600  0.25000000  1
  O  O18  1  0.62709100  0.09524400  0.75000000  1
  O  O19  1  0.87290900  0.59524400  0.75000000  1
