# generated using pymatgen
data_NaFeO3
_symmetry_space_group_name_H-M   'P 1'
_cell_length_a   5.26250041
_cell_length_b   5.27352312
_cell_length_c   7.44757742
_cell_angle_alpha   90.00000000
_cell_angle_beta   90.00000000
_cell_angle_gamma   90.00000000
_symmetry_Int_Tables_number   1
_chemical_formula_structural   NaFeO3
_chemical_formula_sum   'Na4 Fe4 O12'
_cell_volume   206.68455458
_cell_formula_units_Z   4
loop_
 _symmetry_equiv_pos_site_id
 _symmetry_equiv_pos_as_xyz
  1  'x, y, z'
loop_
 _atom_site_type_symbol
 _atom_site_label
 _atom_site_symmetry_multiplicity
 _atom_site_fract_x
 _atom_site_fract_y
 _atom_site_fract_z
 _atom_site_occupancy
  Fe  Fe0  1  0.49999996  0.00000000  0.00000000  1
  Fe  Fe1  1  0.00000000  0.49999970  0.00000000  1
  Fe  Fe2  1  0.49999996  0.00000000  0.49999883  1
  Fe  Fe3  1  0.00000000  0.49999970  0.49999883  1
  Na  Na4  1  0.99881417  0.00800983  0.25000076  1
  Na  Na5  1  0.50118761  0.50801143  0.25000076  1
  Na  Na6  1  0.49881231  0.49198988  0.74999959  1
  Na  Na7  1  0.00118765  0.99198769  0.74999959  1
  O  O8  1  0.73044745  0.26937969  0.01594747  1
  O  O9  1  0.76955243  0.76937939  0.01594747  1
  O  O10  1  0.03195629  0.49752318  0.25000076  1
  O  O11  1  0.46804367  0.99752289  0.25000076  1
  O  O12  1  0.73044745  0.26937969  0.48405271  1
  O  O13  1  0.76955243  0.76937939  0.48405271  1
  O  O14  1  0.23044749  0.23062191  0.51594764  1
  O  O15  1  0.26955247  0.73062162  0.51594764  1
  O  O16  1  0.53195625  0.00247652  0.74999959  1
  O  O17  1  0.96804363  0.50247433  0.74999959  1
  O  O18  1  0.23044749  0.23062191  0.98405288  1
  O  O19  1  0.26955247  0.73062162  0.98405288  1
