# generated using pymatgen
data_AlSnO3
_symmetry_space_group_name_H-M   'P 1'
_cell_length_a   5.20108264
_cell_length_b   5.36384303
_cell_length_c   7.41590242
_cell_angle_alpha   90.00000000
_cell_angle_beta   90.00000000
_cell_angle_gamma   90.00000000
_symmetry_Int_Tables_number   1
_chemical_formula_structural   AlSnO3
_chemical_formula_sum   'Al4 Sn4 O12'
_cell_volume   206.88729504
_cell_formula_units_Z   4
loop_
 _symmetry_equiv_pos_site_id
 _symmetry_equiv_pos_as_xyz
  1  'x, y, z'
loop_
 _atom_site_type_symbol
 _atom_site_label
 _atom_site_symmetry_multiplicity
 _atom_site_fract_x
 _atom_site_fract_y
 _atom_site_fract_z
 _atom_site_occupancy
  Al  Al0  1  0.49999975  0.00000000  0.00000000  1
  Al  Al1  1  0.00000000  0.50000158  0.00000000  1
  Al  Al2  1  0.49999975  0.00000000  0.49999984  1
  Al  Al3  1  0.00000000  0.50000158  0.49999984  1
  O  O4  1  0.69633579  0.29983167  0.04264754  1
  O  O5  1  0.80366345  0.79982952  0.04264754  1
  O  O6  1  0.09061190  0.47464849  0.24999924  1
  O  O7  1  0.40938784  0.97465007  0.24999924  1
  O  O8  1  0.69633579  0.29983167  0.45735230  1
  O  O9  1  0.80366345  0.79982952  0.45735230  1
  O  O10  1  0.19633605  0.20016991  0.54264738  1
  O  O11  1  0.30366370  0.70016963  0.54264738  1
  O  O12  1  0.59061165  0.02535123  0.75000043  1
  O  O13  1  0.90938759  0.52535094  0.75000043  1
  O  O14  1  0.19633605  0.20016991  0.95735213  1
  O  O15  1  0.30366370  0.70016963  0.95735213  1
  Sn  Sn16  1  0.99337779  0.04484285  0.24999924  1
  Sn  Sn17  1  0.50662144  0.54484257  0.24999924  1
  Sn  Sn18  1  0.49337805  0.45515687  0.75000043  1
  Sn  Sn19  1  0.00662170  0.95515659  0.75000043  1
