# generated using pymatgen
data_TiCuO3
_symmetry_space_group_name_H-M   'P 1'
_cell_length_a   4.93744924
_cell_length_b   5.23973667
_cell_length_c   7.51247904
_cell_angle_alpha   90.00000000
_cell_angle_beta   90.00000000
_cell_angle_gamma   90.00000000
_symmetry_Int_Tables_number   1
_chemical_formula_structural   TiCuO3
_chemical_formula_sum   'Ti4 Cu4 O12'
_cell_volume   194.35484855
_cell_formula_units_Z   4
loop_
 _symmetry_equiv_pos_site_id
 _symmetry_equiv_pos_as_xyz
  1  'x, y, z'
loop_
 _atom_site_type_symbol
 _atom_site_label
 _atom_site_symmetry_multiplicity
 _atom_site_fract_x
 _atom_site_fract_y
 _atom_site_fract_z
 _atom_site_occupancy
  Cu  Cu0  1  0.99317072  0.07460871  0.25000003  1
  Cu  Cu1  1  0.50683053  0.57460903  0.25000003  1
  Cu  Cu2  1  0.49316963  0.42538970  0.75000010  1
  Cu  Cu3  1  0.00682944  0.92539001  0.75000010  1
  O  O4  1  0.68639895  0.30619287  0.07541851  1
  O  O5  1  0.81360229  0.80619319  0.07541851  1
  O  O6  1  0.14091892  0.43849341  0.25000003  1
  O  O7  1  0.35908217  0.93849373  0.25000003  1
  O  O8  1  0.68639895  0.30619287  0.42458022  1
  O  O9  1  0.81360229  0.80619319  0.42458022  1
  O  O10  1  0.18639989  0.19380554  0.57541858  1
  O  O11  1  0.31360120  0.69380586  0.57541858  1
  O  O12  1  0.64091798  0.06150691  0.75000010  1
  O  O13  1  0.85908124  0.56150722  0.75000010  1
  O  O14  1  0.18639989  0.19380554  0.92458028  1
  O  O15  1  0.31360120  0.69380586  0.92458028  1
  Ti  Ti16  1  0.50000109  0.00000000  0.00000000  1
  Ti  Ti17  1  0.00000000  0.50000032  0.00000000  1
  Ti  Ti18  1  0.50000109  0.00000000  0.50000006  1
  Ti  Ti19  1  0.00000000  0.50000032  0.50000006  1
