# generated using pymatgen
data_LaNiO3
_symmetry_space_group_name_H-M   'P 1'
_cell_length_a   5.46594352
_cell_length_b   5.40182284
_cell_length_c   7.67371374
_cell_angle_alpha   90.00000000
_cell_angle_beta   90.00000000
_cell_angle_gamma   90.00000000
_symmetry_Int_Tables_number   1
_chemical_formula_structural   LaNiO3
_chemical_formula_sum   'La4 Ni4 O12'
_cell_volume   226.57452119
_cell_formula_units_Z   4
loop_
 _symmetry_equiv_pos_site_id
 _symmetry_equiv_pos_as_xyz
  1  'x, y, z'
loop_
 _atom_site_type_symbol
 _atom_site_label
 _atom_site_symmetry_multiplicity
 _atom_site_fract_x
 _atom_site_fract_y
 _atom_site_fract_z
 _atom_site_occupancy
  La  La0  1  0.99589028  0.02399375  0.25000020  1
  La  La1  1  0.50410876  0.52399349  0.25000020  1
  La  La2  1  0.49589060  0.47600598  0.75000061  1
  La  La3  1  0.00410908  0.97600572  0.75000061  1
  Ni  Ni4  1  0.49999968  0.00000000  0.00000000  1
  Ni  Ni5  1  0.00000000  0.49999974  0.00000000  1
  Ni  Ni6  1  0.49999968  0.00000000  0.50000041  1
  Ni  Ni7  1  0.00000000  0.49999974  0.50000041  1
  O  O8  1  0.72481905  0.27597906  0.03317690  1
  O  O9  1  0.77518181  0.77597880  0.03317690  1
  O  O10  1  0.06179171  0.49567157  0.25000020  1
  O  O11  1  0.43820797  0.99567131  0.25000020  1
  O  O12  1  0.72481905  0.27597906  0.46682351  1
  O  O13  1  0.77518181  0.77597880  0.46682351  1
  O  O14  1  0.22481937  0.22402068  0.53317600  1
  O  O15  1  0.27518030  0.72402041  0.53317600  1
  O  O16  1  0.56179139  0.00432817  0.75000061  1
  O  O17  1  0.93820765  0.50432791  0.75000061  1
  O  O18  1  0.22481937  0.22402068  0.96682392  1
  O  O19  1  0.27518030  0.72402041  0.96682392  1
