# generated using pymatgen
data_SmAgO3
_symmetry_space_group_name_H-M   'P 1'
_cell_length_a   5.52449179
_cell_length_b   6.00860268
_cell_length_c   7.87109013
_cell_angle_alpha   90.00000000
_cell_angle_beta   90.00000000
_cell_angle_gamma   90.00000000
_symmetry_Int_Tables_number   1
_chemical_formula_structural   SmAgO3
_chemical_formula_sum   'Sm4 Ag4 O12'
_cell_volume   261.27671344
_cell_formula_units_Z   4
loop_
 _symmetry_equiv_pos_site_id
 _symmetry_equiv_pos_as_xyz
  1  'x, y, z'
loop_
 _atom_site_type_symbol
 _atom_site_label
 _atom_site_symmetry_multiplicity
 _atom_site_fract_x
 _atom_site_fract_y
 _atom_site_fract_z
 _atom_site_occupancy
  Ag  Ag0  1  0.50000074  0.00000000  0.00000000  1
  Ag  Ag1  1  0.00000000  0.49999978  0.00000000  1
  Ag  Ag2  1  0.50000074  0.00000000  0.50000063  1
  Ag  Ag3  1  0.00000000  0.49999978  0.50000063  1
  O  O4  1  0.69406384  0.31612674  0.06322631  1
  O  O5  1  0.80593658  0.81612652  0.06322631  1
  O  O6  1  0.13351454  0.44807423  0.24999968  1
  O  O7  1  0.36648620  0.94807400  0.24999968  1
  O  O8  1  0.69406384  0.31612674  0.43677304  1
  O  O9  1  0.80593658  0.81612652  0.43677304  1
  O  O10  1  0.19406310  0.18387303  0.56322694  1
  O  O11  1  0.30593764  0.68387281  0.56322694  1
  O  O12  1  0.63351529  0.05192555  0.75000031  1
  O  O13  1  0.86648513  0.55192699  0.75000031  1
  O  O14  1  0.19406310  0.18387303  0.93677367  1
  O  O15  1  0.30593764  0.68387281  0.93677367  1
  Sm  Sm16  1  0.97346873  0.08199244  0.24999968  1
  Sm  Sm17  1  0.52652988  0.58199222  0.24999968  1
  Sm  Sm18  1  0.47346980  0.41800734  0.75000031  1
  Sm  Sm19  1  0.02653095  0.91800711  0.75000031  1
