# generated using pymatgen
data_CaTmO3
_symmetry_space_group_name_H-M   'P 1'
_cell_length_a   5.84002191
_cell_length_b   6.06118656
_cell_length_c   7.77508632
_cell_angle_alpha   90.00000000
_cell_angle_beta   90.00000000
_cell_angle_gamma   90.00000000
_symmetry_Int_Tables_number   1
_chemical_formula_structural   CaTmO3
_chemical_formula_sum   'Ca4 Tm4 O12'
_cell_volume   275.21832471
_cell_formula_units_Z   4
loop_
 _symmetry_equiv_pos_site_id
 _symmetry_equiv_pos_as_xyz
  1  'x, y, z'
loop_
 _atom_site_type_symbol
 _atom_site_label
 _atom_site_symmetry_multiplicity
 _atom_site_fract_x
 _atom_site_fract_y
 _atom_site_fract_z
 _atom_site_occupancy
  Ca  Ca0  1  0.98336104  0.05795070  0.24999980  1
  Ca  Ca1  1  0.51664019  0.55795181  0.24999980  1
  Ca  Ca2  1  0.48336120  0.44204876  0.75000068  1
  Ca  Ca3  1  0.01664206  0.94204987  0.75000068  1
  O  O4  1  0.70572680  0.28974195  0.08447495  1
  O  O5  1  0.79427442  0.78974141  0.08447495  1
  O  O6  1  0.15309018  0.41863750  0.24999980  1
  O  O7  1  0.34691308  0.91863696  0.24999980  1
  O  O8  1  0.70572680  0.28974195  0.41552465  1
  O  O9  1  0.79427442  0.78974141  0.41552465  1
  O  O10  1  0.20572697  0.21025751  0.58447454  1
  O  O11  1  0.29427287  0.71025862  0.58447454  1
  O  O12  1  0.65308830  0.08136361  0.75000068  1
  O  O13  1  0.84691121  0.58136307  0.75000068  1
  O  O14  1  0.20572697  0.21025751  0.91552424  1
  O  O15  1  0.29427287  0.71025862  0.91552424  1
  Tm  Tm16  1  0.49999984  0.00000000  0.00000000  1
  Tm  Tm17  1  0.00000000  0.50000111  0.00000000  1
  Tm  Tm18  1  0.49999984  0.00000000  0.49999959  1
  Tm  Tm19  1  0.00000000  0.50000111  0.49999959  1
