# generated using pymatgen
data_NiPtO3
_symmetry_space_group_name_H-M   'P 1'
_cell_length_a   5.13432409
_cell_length_b   5.30071973
_cell_length_c   7.42745379
_cell_angle_alpha   90.00000000
_cell_angle_beta   90.00000000
_cell_angle_gamma   90.00000000
_symmetry_Int_Tables_number   1
_chemical_formula_structural   NiPtO3
_chemical_formula_sum   'Ni4 Pt4 O12'
_cell_volume   202.14270799
_cell_formula_units_Z   4
loop_
 _symmetry_equiv_pos_site_id
 _symmetry_equiv_pos_as_xyz
  1  'x, y, z'
loop_
 _atom_site_type_symbol
 _atom_site_label
 _atom_site_symmetry_multiplicity
 _atom_site_fract_x
 _atom_site_fract_y
 _atom_site_fract_z
 _atom_site_occupancy
  Ni  Ni0  1  0.99147423  0.05150055  0.24999954  1
  Ni  Ni1  1  0.50852653  0.55150058  0.24999954  1
  Ni  Ni2  1  0.49147268  0.44849947  0.74999995  1
  Ni  Ni3  1  0.00852498  0.94849950  0.74999995  1
  O  O4  1  0.67292402  0.32196948  0.07853970  1
  O  O5  1  0.82707284  0.82196762  0.07853970  1
  O  O6  1  0.14577576  0.41214215  0.24999954  1
  O  O7  1  0.35422579  0.91214217  0.24999954  1
  O  O8  1  0.67292402  0.32196948  0.42146072  1
  O  O9  1  0.82707284  0.82196762  0.42146072  1
  O  O10  1  0.17292636  0.17803054  0.57853877  1
  O  O11  1  0.32707518  0.67803057  0.57853877  1
  O  O12  1  0.64577536  0.08785788  0.74999995  1
  O  O13  1  0.85422344  0.58785979  0.74999995  1
  O  O14  1  0.17292636  0.17803054  0.92146114  1
  O  O15  1  0.32707518  0.67803057  0.92146114  1
  Pt  Pt16  1  0.50000155  0.00000000  0.00000000  1
  Pt  Pt17  1  0.00000000  0.50000003  0.00000000  1
  Pt  Pt18  1  0.50000155  0.00000000  0.50000042  1
  Pt  Pt19  1  0.00000000  0.50000003  0.50000042  1
