# generated using pymatgen
data_TlGeO3
_symmetry_space_group_name_H-M   'P 1'
_cell_length_a   5.42290151
_cell_length_b   5.42309297
_cell_length_c   7.68600492
_cell_angle_alpha   90.00000000
_cell_angle_beta   90.00000000
_cell_angle_gamma   90.00000000
_symmetry_Int_Tables_number   1
_chemical_formula_structural   TlGeO3
_chemical_formula_sum   'Tl4 Ge4 O12'
_cell_volume   226.03694307
_cell_formula_units_Z   4
loop_
 _symmetry_equiv_pos_site_id
 _symmetry_equiv_pos_as_xyz
  1  'x, y, z'
loop_
 _atom_site_type_symbol
 _atom_site_label
 _atom_site_symmetry_multiplicity
 _atom_site_fract_x
 _atom_site_fract_y
 _atom_site_fract_z
 _atom_site_occupancy
  Ge  Ge0  1  0.49999986  0.00000000  0.00000000  1
  Ge  Ge1  1  0.00000000  0.49999880  0.00000000  1
  Ge  Ge2  1  0.49999986  0.00000000  0.49999968  1
  Ge  Ge3  1  0.00000000  0.49999880  0.49999968  1
  O  O4  1  0.72097382  0.27808854  0.02535387  1
  O  O5  1  0.77902577  0.77808919  0.02535387  1
  O  O6  1  0.05092846  0.49698023  0.24999984  1
  O  O7  1  0.44907325  0.99698272  0.24999984  1
  O  O8  1  0.72097382  0.27808854  0.47464711  1
  O  O9  1  0.77902577  0.77808919  0.47464711  1
  O  O10  1  0.22097396  0.22191027  0.52535355  1
  O  O11  1  0.27902590  0.72191091  0.52535355  1
  O  O12  1  0.55092647  0.00301857  0.74999952  1
  O  O13  1  0.94907311  0.50301922  0.74999952  1
  O  O14  1  0.22097396  0.22191027  0.97464549  1
  O  O15  1  0.27902590  0.72191091  0.97464549  1
  Tl  Tl16  1  0.99801739  0.01580463  0.24999984  1
  Tl  Tl17  1  0.50198404  0.51580344  0.24999984  1
  Tl  Tl18  1  0.49801568  0.48419601  0.74999952  1
  Tl  Tl19  1  0.00198418  0.98419482  0.74999952  1
