# generated using pymatgen
data_NaGeO3
_symmetry_space_group_name_H-M   'P 1'
_cell_length_a   5.25831732
_cell_length_b   5.27827256
_cell_length_c   7.40725167
_cell_angle_alpha   90.00000000
_cell_angle_beta   90.00000000
_cell_angle_gamma   90.00000000
_symmetry_Int_Tables_number   1
_chemical_formula_structural   NaGeO3
_chemical_formula_sum   'Na4 Ge4 O12'
_cell_volume   205.58702571
_cell_formula_units_Z   4
loop_
 _symmetry_equiv_pos_site_id
 _symmetry_equiv_pos_as_xyz
  1  'x, y, z'
loop_
 _atom_site_type_symbol
 _atom_site_label
 _atom_site_symmetry_multiplicity
 _atom_site_fract_x
 _atom_site_fract_y
 _atom_site_fract_z
 _atom_site_occupancy
  Ge  Ge0  1  0.50000216  0.00000000  0.00000000  1
  Ge  Ge1  1  0.00000000  0.50000070  0.00000000  1
  Ge  Ge2  1  0.50000216  0.00000000  0.49999921  1
  Ge  Ge3  1  0.00000000  0.50000070  0.49999921  1
  Na  Na4  1  0.99731714  0.00948795  0.24999826  1
  Na  Na5  1  0.50268172  0.50948866  0.24999826  1
  Na  Na6  1  0.49732069  0.49051086  0.75000152  1
  Na  Na7  1  0.00268147  0.99050967  0.75000152  1
  O  O8  1  0.73247767  0.26758944  0.02532923  1
  O  O9  1  0.76752310  0.76759204  0.02532923  1
  O  O10  1  0.05179033  0.49519989  0.24999826  1
  O  O11  1  0.44820612  0.99520060  0.24999826  1
  O  O12  1  0.73247767  0.26758944  0.47466998  1
  O  O13  1  0.76752310  0.76759204  0.47466998  1
  O  O14  1  0.23247741  0.23240937  0.52532710  1
  O  O15  1  0.26752475  0.73241197  0.52532710  1
  O  O16  1  0.55179249  0.00480081  0.75000152  1
  O  O17  1  0.94820828  0.50479773  0.75000152  1
  O  O18  1  0.23247741  0.23240937  0.97467189  1
  O  O19  1  0.26752475  0.73241197  0.97467189  1
