# generated using pymatgen
data_SrAsO3
_symmetry_space_group_name_H-M   'P 1'
_cell_length_a   5.57866546
_cell_length_b   5.57062435
_cell_length_c   7.88342309
_cell_angle_alpha   90.00000000
_cell_angle_beta   90.00000000
_cell_angle_gamma   90.00000000
_symmetry_Int_Tables_number   1
_chemical_formula_structural   SrAsO3
_chemical_formula_sum   'Sr4 As4 O12'
_cell_volume   244.99037739
_cell_formula_units_Z   4
loop_
 _symmetry_equiv_pos_site_id
 _symmetry_equiv_pos_as_xyz
  1  'x, y, z'
loop_
 _atom_site_type_symbol
 _atom_site_label
 _atom_site_symmetry_multiplicity
 _atom_site_fract_x
 _atom_site_fract_y
 _atom_site_fract_z
 _atom_site_occupancy
  As  As0  1  0.49999951  0.00000000  0.00000000  1
  As  As1  1  0.00000000  0.49999961  0.00000000  1
  As  As2  1  0.49999951  0.00000000  0.49999980  1
  As  As3  1  0.00000000  0.49999961  0.49999980  1
  O  O4  1  0.73641627  0.26377474  0.01576980  1
  O  O5  1  0.76358406  0.76377435  0.01576980  1
  O  O6  1  0.03074033  0.49705739  0.24999927  1
  O  O7  1  0.46925918  0.99705880  0.24999927  1
  O  O8  1  0.73641627  0.26377474  0.48423127  1
  O  O9  1  0.76358406  0.76377435  0.48423127  1
  O  O10  1  0.23641497  0.23622666  0.51576960  1
  O  O11  1  0.26358455  0.73622627  0.51576960  1
  O  O12  1  0.53073984  0.00294222  0.74999907  1
  O  O13  1  0.96925869  0.50294183  0.74999907  1
  O  O14  1  0.23641497  0.23622666  0.98423108  1
  O  O15  1  0.26358455  0.73622627  0.98423108  1
  Sr  Sr16  1  0.99917983  0.00751980  0.24999927  1
  Sr  Sr17  1  0.50082229  0.50751941  0.24999927  1
  Sr  Sr18  1  0.49917853  0.49247981  0.74999907  1
  Sr  Sr19  1  0.00082098  0.99247942  0.74999907  1
