# generated using pymatgen
data_EuAlO3
_symmetry_space_group_name_H-M   'P 1'
_cell_length_a   5.25726484
_cell_length_b   5.26255651
_cell_length_c   7.43852048
_cell_angle_alpha   90.00000000
_cell_angle_beta   90.00000000
_cell_angle_gamma   90.00000000
_symmetry_Int_Tables_number   1
_chemical_formula_structural   EuAlO3
_chemical_formula_sum   'Eu4 Al4 O12'
_cell_volume   205.79896732
_cell_formula_units_Z   4
loop_
 _symmetry_equiv_pos_site_id
 _symmetry_equiv_pos_as_xyz
  1  'x, y, z'
loop_
 _atom_site_type_symbol
 _atom_site_label
 _atom_site_symmetry_multiplicity
 _atom_site_fract_x
 _atom_site_fract_y
 _atom_site_fract_z
 _atom_site_occupancy
  Al  Al0  1  0.49999954  0.00000000  0.00000000  1
  Al  Al1  1  0.00000000  0.50000033  0.00000000  1
  Al  Al2  1  0.49999954  0.00000000  0.49999997  1
  Al  Al3  1  0.00000000  0.50000033  0.49999997  1
  Eu  Eu4  1  0.99983071  0.00005511  0.24999998  1
  Eu  Eu5  1  0.50016883  0.50005544  0.24999998  1
  Eu  Eu6  1  0.49983025  0.49994523  0.74999995  1
  Eu  Eu7  1  0.00016929  -0.00005511  0.74999995  1
  O  O8  1  0.75103882  0.24882773  0.99797272  1
  O  O9  1  0.74896170  0.74882806  0.99797272  1
  O  O10  1  0.99577347  0.50030627  0.24999998  1
  O  O11  1  0.50422607  0.00030593  0.24999998  1
  O  O12  1  0.75103882  0.24882773  0.50202725  1
  O  O13  1  0.74896170  0.74882806  0.50202725  1
  O  O14  1  0.25103738  0.25117070  0.49797268  1
  O  O15  1  0.24896216  0.75117103  0.49797268  1
  O  O16  1  0.49577301  0.99969407  0.74999995  1
  O  O17  1  0.00422653  0.49969440  0.74999995  1
  O  O18  1  0.25103738  0.25117070  0.00202728  1
  O  O19  1  0.24896216  0.75117103  0.00202728  1
