# generated using pymatgen
data_EuHgO3
_symmetry_space_group_name_H-M   'P 1'
_cell_length_a   5.73020425
_cell_length_b   6.50423289
_cell_length_c   7.50885278
_cell_angle_alpha   90.00000000
_cell_angle_beta   90.00000000
_cell_angle_gamma   90.00000000
_symmetry_Int_Tables_number   1
_chemical_formula_structural   EuHgO3
_chemical_formula_sum   'Eu4 Hg4 O12'
_cell_volume   279.85932038
_cell_formula_units_Z   4
loop_
 _symmetry_equiv_pos_site_id
 _symmetry_equiv_pos_as_xyz
  1  'x, y, z'
loop_
 _atom_site_type_symbol
 _atom_site_label
 _atom_site_symmetry_multiplicity
 _atom_site_fract_x
 _atom_site_fract_y
 _atom_site_fract_z
 _atom_site_occupancy
  Eu  Eu0  1  0.97439982  0.08541822  0.24999957  1
  Eu  Eu1  1  0.52560081  0.58542030  0.24999957  1
  Eu  Eu2  1  0.47440019  0.41458079  0.75000005  1
  Eu  Eu3  1  0.02559944  0.91457980  0.75000005  1
  Hg  Hg4  1  0.49999963  0.00000000  0.00000000  1
  Hg  Hg5  1  0.00000000  0.49999901  0.00000000  1
  Hg  Hg6  1  0.49999963  0.00000000  0.50000048  1
  Hg  Hg7  1  0.00000000  0.49999901  0.50000048  1
  O  O8  1  0.70592946  0.33181776  0.05224899  1
  O  O9  1  0.79406943  0.83181831  0.05224899  1
  O  O10  1  0.13965471  0.42948032  0.24999957  1
  O  O11  1  0.36034492  0.92947933  0.24999957  1
  O  O12  1  0.70592946  0.33181776  0.44775149  1
  O  O13  1  0.79406943  0.83181831  0.44775149  1
  O  O14  1  0.20593158  0.16818125  0.55224814  1
  O  O15  1  0.29406980  0.66818179  0.55224814  1
  O  O16  1  0.63965434  0.07052177  0.75000005  1
  O  O17  1  0.86034455  0.57052078  0.75000005  1
  O  O18  1  0.20593158  0.16818125  0.94775197  1
  O  O19  1  0.29406980  0.66818179  0.94775197  1
