# generated using pymatgen
data_EuUO3
_symmetry_space_group_name_H-M   'P 1'
_cell_length_a   5.94366600
_cell_length_b   6.17415500
_cell_length_c   8.54896700
_cell_angle_alpha   90.00000000
_cell_angle_beta   90.00000000
_cell_angle_gamma   90.00000000
_symmetry_Int_Tables_number   1
_chemical_formula_structural   EuUO3
_chemical_formula_sum   'Eu4 U4 O12'
_cell_volume   313.72242643
_cell_formula_units_Z   4
loop_
 _symmetry_equiv_pos_site_id
 _symmetry_equiv_pos_as_xyz
  1  'x, y, z'
loop_
 _atom_site_type_symbol
 _atom_site_label
 _atom_site_symmetry_multiplicity
 _atom_site_fract_x
 _atom_site_fract_y
 _atom_site_fract_z
 _atom_site_occupancy
  Eu  Eu0  1  0.01107000  0.45128000  0.25000000  1
  Eu  Eu1  1  0.98893000  0.54872000  0.75000000  1
  Eu  Eu2  1  0.51107000  0.04872000  0.75000000  1
  Eu  Eu3  1  0.48893000  0.95128000  0.25000000  1
  U  U4  1  0.00000000  0.00000000  0.00000000  1
  U  U5  1  0.50000000  0.50000000  0.00000000  1
  U  U6  1  0.00000000  0.00000000  0.50000000  1
  U  U7  1  0.50000000  0.50000000  0.50000000  1
  O  O8  1  0.30395600  0.19419300  0.05981100  1
  O  O9  1  0.69604400  0.80580700  0.94018900  1
  O  O10  1  0.80395600  0.30580700  0.94018900  1
  O  O11  1  0.69604400  0.80580700  0.55981100  1
  O  O12  1  0.19604400  0.69419300  0.05981100  1
  O  O13  1  0.30395600  0.19419300  0.44018900  1
  O  O14  1  0.19604400  0.69419300  0.44018900  1
  O  O15  1  0.80395600  0.30580700  0.55981100  1
  O  O16  1  0.61287900  0.54744900  0.25000000  1
  O  O17  1  0.38712100  0.45255100  0.75000000  1
  O  O18  1  0.11287900  0.95255100  0.75000000  1
  O  O19  1  0.88712100  0.04744900  0.25000000  1
