# generated using pymatgen
data_YbReO3
_symmetry_space_group_name_H-M   'P 1'
_cell_length_a   5.26552379
_cell_length_b   5.62377968
_cell_length_c   7.62018365
_cell_angle_alpha   90.00000000
_cell_angle_beta   90.00000000
_cell_angle_gamma   90.00000000
_symmetry_Int_Tables_number   1
_chemical_formula_structural   YbReO3
_chemical_formula_sum   'Yb4 Re4 O12'
_cell_volume   225.64998852
_cell_formula_units_Z   4
loop_
 _symmetry_equiv_pos_site_id
 _symmetry_equiv_pos_as_xyz
  1  'x, y, z'
loop_
 _atom_site_type_symbol
 _atom_site_label
 _atom_site_symmetry_multiplicity
 _atom_site_fract_x
 _atom_site_fract_y
 _atom_site_fract_z
 _atom_site_occupancy
  O  O0  1  0.69398604  0.29786017  0.05056177  1
  O  O1  1  0.80601478  0.79786020  0.05056177  1
  O  O2  1  0.10720301  0.47196195  0.25000054  1
  O  O3  1  0.39279663  0.97196197  0.25000054  1
  O  O4  1  0.69398604  0.29786017  0.44943799  1
  O  O5  1  0.80601478  0.79786020  0.44943799  1
  O  O6  1  0.19398640  0.20213985  0.55056153  1
  O  O7  1  0.30601324  0.70213810  0.55056153  1
  O  O8  1  0.60720455  0.02803986  0.75000030  1
  O  O9  1  0.89279627  0.52803989  0.75000030  1
  O  O10  1  0.19398640  0.20213985  0.94943906  1
  O  O11  1  0.30601324  0.70213810  0.94943906  1
  Re  Re12  1  0.50000154  0.00000000  0.00000000  1
  Re  Re13  1  0.00000000  0.50000003  0.00000000  1
  Re  Re14  1  0.50000154  0.00000000  0.49999976  1
  Re  Re15  1  0.00000000  0.50000003  0.49999976  1
  Yb  Yb16  1  0.97650874  0.06837394  0.25000054  1
  Yb  Yb17  1  0.52349018  0.56837397  0.25000054  1
  Yb  Yb18  1  0.47651100  0.43162608  0.75000030  1
  Yb  Yb19  1  0.02349054  0.93162611  0.75000030  1
