# generated using pymatgen
data_ErBeO3
_symmetry_space_group_name_H-M   'P 1'
_cell_length_a   4.91730261
_cell_length_b   5.31959231
_cell_length_c   7.00371133
_cell_angle_alpha   90.00000000
_cell_angle_beta   90.00000000
_cell_angle_gamma   90.00000000
_symmetry_Int_Tables_number   1
_chemical_formula_structural   ErBeO3
_chemical_formula_sum   'Er4 Be4 O12'
_cell_volume   183.20339739
_cell_formula_units_Z   4
loop_
 _symmetry_equiv_pos_site_id
 _symmetry_equiv_pos_as_xyz
  1  'x, y, z'
loop_
 _atom_site_type_symbol
 _atom_site_label
 _atom_site_symmetry_multiplicity
 _atom_site_fract_x
 _atom_site_fract_y
 _atom_site_fract_z
 _atom_site_occupancy
  Be  Be0  1  0.49999973  0.00000000  0.00000000  1
  Be  Be1  1  0.00000000  0.49999884  0.00000000  1
  Be  Be2  1  0.49999973  0.00000000  0.50000062  1
  Be  Be3  1  0.00000000  0.49999884  0.50000062  1
  Er  Er4  1  0.97754407  0.07127238  0.25000031  1
  Er  Er5  1  0.52245514  0.57127122  0.25000031  1
  Er  Er6  1  0.47754433  0.42872834  0.74999950  1
  Er  Er7  1  0.02245743  0.92872719  0.74999950  1
  O  O8  1  0.68734025  0.28211936  0.03742730  1
  O  O9  1  0.81265895  0.78211821  0.03742730  1
  O  O10  1  0.06929409  0.48952248  0.25000031  1
  O  O11  1  0.43070768  0.98952320  0.25000031  1
  O  O12  1  0.68734025  0.28211936  0.46257332  1
  O  O13  1  0.81265895  0.78211821  0.46257332  1
  O  O14  1  0.18734051  0.21788136  0.53742792  1
  O  O15  1  0.31265922  0.71788020  0.53742792  1
  O  O16  1  0.56929382  0.01047637  0.74999950  1
  O  O17  1  0.93070538  0.51047709  0.74999950  1
  O  O18  1  0.18734051  0.21788136  0.96257251  1
  O  O19  1  0.31265922  0.71788020  0.96257251  1
