# generated using pymatgen
data_YbPdO3
_symmetry_space_group_name_H-M   'P 1'
_cell_length_a   5.23901666
_cell_length_b   5.65025699
_cell_length_c   7.57859671
_cell_angle_alpha   90.00000000
_cell_angle_beta   90.00000000
_cell_angle_gamma   90.00000000
_symmetry_Int_Tables_number   1
_chemical_formula_structural   YbPdO3
_chemical_formula_sum   'Yb4 Pd4 O12'
_cell_volume   224.34003200
_cell_formula_units_Z   4
loop_
 _symmetry_equiv_pos_site_id
 _symmetry_equiv_pos_as_xyz
  1  'x, y, z'
loop_
 _atom_site_type_symbol
 _atom_site_label
 _atom_site_symmetry_multiplicity
 _atom_site_fract_x
 _atom_site_fract_y
 _atom_site_fract_z
 _atom_site_occupancy
  O  O0  1  0.68158592  0.30729222  0.05859132  1
  O  O1  1  0.81841503  0.80729248  0.05859132  1
  O  O2  1  0.12292765  0.45746769  0.25000011  1
  O  O3  1  0.37707458  0.95746795  0.25000011  1
  O  O4  1  0.68158592  0.30729222  0.44140890  1
  O  O5  1  0.81841503  0.80729248  0.44140890  1
  O  O6  1  0.18158560  0.19270628  0.55859154  1
  O  O7  1  0.31841472  0.69270655  0.55859154  1
  O  O8  1  0.62292606  0.04253258  0.75000033  1
  O  O9  1  0.87707490  0.54253285  0.75000033  1
  O  O10  1  0.18158560  0.19270628  0.94140779  1
  O  O11  1  0.31841472  0.69270655  0.94140779  1
  Pd  Pd12  1  0.50000032  0.00000000  0.00000000  1
  Pd  Pd13  1  0.00000000  0.50000027  0.00000000  1
  Pd  Pd14  1  0.50000032  0.00000000  0.50000022  1
  Pd  Pd15  1  0.00000000  0.50000027  0.50000022  1
  Yb  Yb16  1  0.97180642  0.07989902  0.25000011  1
  Yb  Yb17  1  0.52819263  0.57989929  0.25000011  1
  Yb  Yb18  1  0.47180801  0.42010125  0.75000033  1
  Yb  Yb19  1  0.02819231  0.92010151  0.75000033  1
