# generated using pymatgen
data_LiDyO3
_symmetry_space_group_name_H-M   'P 1'
_cell_length_a   4.99073608
_cell_length_b   5.76248641
_cell_length_c   7.21491600
_cell_angle_alpha   90.00000000
_cell_angle_beta   90.00000000
_cell_angle_gamma   90.00000000
_symmetry_Int_Tables_number   1
_chemical_formula_structural   LiDyO3
_chemical_formula_sum   'Li4 Dy4 O12'
_cell_volume   207.49412186
_cell_formula_units_Z   4
loop_
 _symmetry_equiv_pos_site_id
 _symmetry_equiv_pos_as_xyz
  1  'x, y, z'
loop_
 _atom_site_type_symbol
 _atom_site_label
 _atom_site_symmetry_multiplicity
 _atom_site_fract_x
 _atom_site_fract_y
 _atom_site_fract_z
 _atom_site_occupancy
  Dy  Dy0  1  0.96092839  0.10849310  0.25000014  1
  Dy  Dy1  1  0.53907078  0.60849254  0.25000014  1
  Dy  Dy2  1  0.46093000  0.39150808  0.74999903  1
  Dy  Dy3  1  0.03907039  0.89150753  0.74999903  1
  Li  Li4  1  0.49999839  0.00000000  0.00000000  1
  Li  Li5  1  0.00000000  0.49999944  0.00000000  1
  Li  Li6  1  0.49999839  0.00000000  0.50000028  1
  Li  Li7  1  0.00000000  0.49999944  0.50000028  1
  O  O8  1  0.66041761  0.30321113  0.05224870  1
  O  O9  1  0.83958156  0.80321057  0.05224870  1
  O  O10  1  0.40471385  0.00635663  0.25000014  1
  O  O11  1  0.09528454  0.50635607  0.25000014  1
  O  O12  1  0.66041761  0.30321113  0.44775019  1
  O  O13  1  0.83958156  0.80321057  0.44775019  1
  O  O14  1  0.16041922  0.19679005  0.55224898  1
  O  O15  1  0.33958317  0.69678950  0.55224898  1
  O  O16  1  0.90471624  0.49364281  0.74999903  1
  O  O17  1  0.59528493  0.99364226  0.74999903  1
  O  O18  1  0.16041922  0.19679005  0.94775185  1
  O  O19  1  0.33958317  0.69678950  0.94775185  1
