# generated using pymatgen
data_CsSmBr3
_symmetry_space_group_name_H-M   'P 1'
_cell_length_a   8.01257100
_cell_length_b   8.36219500
_cell_length_c   11.65026900
_cell_angle_alpha   90.00000000
_cell_angle_beta   90.00000000
_cell_angle_gamma   90.00000000
_symmetry_Int_Tables_number   1
_chemical_formula_structural   CsSmBr3
_chemical_formula_sum   'Cs4 Sm4 Br12'
_cell_volume   780.59925916
_cell_formula_units_Z   4
loop_
 _symmetry_equiv_pos_site_id
 _symmetry_equiv_pos_as_xyz
  1  'x, y, z'
loop_
 _atom_site_type_symbol
 _atom_site_label
 _atom_site_symmetry_multiplicity
 _atom_site_fract_x
 _atom_site_fract_y
 _atom_site_fract_z
 _atom_site_occupancy
  Cs  Cs0  1  0.02893900  0.44536100  0.25000000  1
  Cs  Cs1  1  0.97106100  0.55463900  0.75000000  1
  Cs  Cs2  1  0.52893900  0.05463900  0.75000000  1
  Cs  Cs3  1  0.47106100  0.94536100  0.25000000  1
  Sm  Sm4  1  0.00000000  0.00000000  0.00000000  1
  Sm  Sm5  1  0.50000000  0.50000000  0.00000000  1
  Sm  Sm6  1  0.00000000  0.00000000  0.50000000  1
  Sm  Sm7  1  0.50000000  0.50000000  0.50000000  1
  Br  Br8  1  0.28432400  0.21840400  0.02404300  1
  Br  Br9  1  0.71567600  0.78159600  0.97595700  1
  Br  Br10  1  0.78432400  0.28159600  0.97595700  1
  Br  Br11  1  0.71567600  0.78159600  0.52404300  1
  Br  Br12  1  0.21567600  0.71840400  0.02404300  1
  Br  Br13  1  0.28432400  0.21840400  0.47595700  1
  Br  Br14  1  0.21567600  0.71840400  0.47595700  1
  Br  Br15  1  0.78432400  0.28159600  0.52404300  1
  Br  Br16  1  0.55187300  0.49988900  0.25000000  1
  Br  Br17  1  0.44812700  0.50011100  0.75000000  1
  Br  Br18  1  0.05187300  0.00011100  0.75000000  1
  Br  Br19  1  0.94812700  0.99988900  0.25000000  1
