# generated using pymatgen
data_EuCuO3
_symmetry_space_group_name_H-M   'P 1'
_cell_length_a   5.32905208
_cell_length_b   5.26852926
_cell_length_c   7.50948208
_cell_angle_alpha   90.00000000
_cell_angle_beta   90.00000000
_cell_angle_gamma   90.00000000
_symmetry_Int_Tables_number   1
_chemical_formula_structural   EuCuO3
_chemical_formula_sum   'Eu4 Cu4 O12'
_cell_volume   210.83822266
_cell_formula_units_Z   4
loop_
 _symmetry_equiv_pos_site_id
 _symmetry_equiv_pos_as_xyz
  1  'x, y, z'
loop_
 _atom_site_type_symbol
 _atom_site_label
 _atom_site_symmetry_multiplicity
 _atom_site_fract_x
 _atom_site_fract_y
 _atom_site_fract_z
 _atom_site_occupancy
  Cu  Cu0  1  0.50000074  0.00000000  0.00000000  1
  Cu  Cu1  1  0.00000000  0.50000102  0.00000000  1
  Cu  Cu2  1  0.50000074  0.00000000  0.49999986  1
  Cu  Cu3  1  0.00000000  0.50000102  0.49999986  1
  Eu  Eu4  1  0.99813249  0.01352370  0.24999993  1
  Eu  Eu5  1  0.50186974  0.51352472  0.24999993  1
  Eu  Eu6  1  0.49813174  0.48647542  0.74999979  1
  Eu  Eu7  1  0.00186900  0.98647644  0.74999979  1
  O  O8  1  0.73419436  0.26620712  0.02115459  1
  O  O9  1  0.76580599  0.76620814  0.02115459  1
  O  O10  1  0.46049466  0.00942958  0.24999993  1
  O  O11  1  0.03950609  0.50942870  0.24999993  1
  O  O12  1  0.73419436  0.26620712  0.47884527  1
  O  O13  1  0.76580599  0.76620814  0.47884527  1
  O  O14  1  0.23419550  0.23379200  0.52115445  1
  O  O15  1  0.26580525  0.73379302  0.52115445  1
  O  O16  1  0.96049540  0.49057144  0.74999979  1
  O  O17  1  0.53950495  0.99057056  0.74999979  1
  O  O18  1  0.23419550  0.23379200  0.97884513  1
  O  O19  1  0.26580525  0.73379302  0.97884513  1
