# generated using pymatgen
data_CeTaO3
_symmetry_space_group_name_H-M   'P 1'
_cell_length_a   5.56016008
_cell_length_b   6.01703200
_cell_length_c   7.93189185
_cell_angle_alpha   90.00000000
_cell_angle_beta   90.00000000
_cell_angle_gamma   90.00000000
_symmetry_Int_Tables_number   1
_chemical_formula_structural   CeTaO3
_chemical_formula_sum   'Ce4 Ta4 O12'
_cell_volume   265.36668598
_cell_formula_units_Z   4
loop_
 _symmetry_equiv_pos_site_id
 _symmetry_equiv_pos_as_xyz
  1  'x, y, z'
loop_
 _atom_site_type_symbol
 _atom_site_label
 _atom_site_symmetry_multiplicity
 _atom_site_fract_x
 _atom_site_fract_y
 _atom_site_fract_z
 _atom_site_occupancy
  Ce  Ce0  1  0.97115010  0.07573169  0.24999963  1
  Ce  Ce1  1  0.52884988  0.57573235  0.24999963  1
  Ce  Ce2  1  0.47115010  0.42426898  0.75000014  1
  Ce  Ce3  1  0.02884989  0.92426798  0.75000014  1
  O  O4  1  0.69869031  0.28884340  0.03774257  1
  O  O5  1  0.80130966  0.78884407  0.03774257  1
  O  O6  1  0.11384924  0.47035482  0.24999963  1
  O  O7  1  0.38615075  0.97035382  0.24999963  1
  O  O8  1  0.69869031  0.28884340  0.46225794  1
  O  O9  1  0.80130966  0.78884407  0.46225794  1
  O  O10  1  0.19869032  0.21115726  0.53774182  1
  O  O11  1  0.30130967  0.71115626  0.53774182  1
  O  O12  1  0.61384923  0.02964585  0.75000014  1
  O  O13  1  0.88615074  0.52964651  0.75000014  1
  O  O14  1  0.19869032  0.21115726  0.96225719  1
  O  O15  1  0.30130967  0.71115626  0.96225719  1
  Ta  Ta16  1  0.49999999  0.00000000  0.00000000  1
  Ta  Ta17  1  0.00000000  0.50000067  0.00000000  1
  Ta  Ta18  1  0.49999999  0.00000000  0.50000051  1
  Ta  Ta19  1  0.00000000  0.50000067  0.50000051  1
