# generated using pymatgen
data_LiYO3
_symmetry_space_group_name_H-M   'P 1'
_cell_length_a   5.02344474
_cell_length_b   5.77167100
_cell_length_c   7.22634667
_cell_angle_alpha   90.00000000
_cell_angle_beta   90.00000000
_cell_angle_gamma   90.00000000
_symmetry_Int_Tables_number   1
_chemical_formula_structural   LiYO3
_chemical_formula_sum   'Li4 Y4 O12'
_cell_volume   209.51831283
_cell_formula_units_Z   4
loop_
 _symmetry_equiv_pos_site_id
 _symmetry_equiv_pos_as_xyz
  1  'x, y, z'
loop_
 _atom_site_type_symbol
 _atom_site_label
 _atom_site_symmetry_multiplicity
 _atom_site_fract_x
 _atom_site_fract_y
 _atom_site_fract_z
 _atom_site_occupancy
  Li  Li0  1  0.49999953  0.00000000  0.00000000  1
  Li  Li1  1  0.00000000  0.50000078  0.00000000  1
  Li  Li2  1  0.49999953  0.00000000  0.49999954  1
  Li  Li3  1  0.00000000  0.50000078  0.49999954  1
  O  O4  1  0.66023619  0.30241675  0.05296175  1
  O  O5  1  0.83976439  0.80241580  0.05296175  1
  O  O6  1  0.40359357  0.00768582  0.25000046  1
  O  O7  1  0.09640795  0.50768660  0.25000046  1
  O  O8  1  0.66023619  0.30241675  0.44703917  1
  O  O9  1  0.83976439  0.80241580  0.44703917  1
  O  O10  1  0.16023666  0.19758403  0.55296129  1
  O  O11  1  0.33976287  0.69758307  0.55296129  1
  O  O12  1  0.90359310  0.49231323  0.75000000  1
  O  O13  1  0.59640748  0.99231401  0.75000000  1
  O  O14  1  0.16023666  0.19758403  0.94703871  1
  O  O15  1  0.33976287  0.69758307  0.94703871  1
  Y  Y16  1  0.96180216  0.10845213  0.25000046  1
  Y  Y17  1  0.53819642  0.60845291  0.25000046  1
  Y  Y18  1  0.46180462  0.39154692  0.75000000  1
  Y  Y19  1  0.03819491  0.89154770  0.75000000  1
