# generated using pymatgen
data_LiPaO3
_symmetry_space_group_name_H-M   'P 1'
_cell_length_a   5.51776782
_cell_length_b   5.77708092
_cell_length_c   8.16130812
_cell_angle_alpha   90.00000000
_cell_angle_beta   90.00000000
_cell_angle_gamma   90.00000000
_symmetry_Int_Tables_number   1
_chemical_formula_structural   LiPaO3
_chemical_formula_sum   'Li4 Pa4 O12'
_cell_volume   260.15468243
_cell_formula_units_Z   4
loop_
 _symmetry_equiv_pos_site_id
 _symmetry_equiv_pos_as_xyz
  1  'x, y, z'
loop_
 _atom_site_type_symbol
 _atom_site_label
 _atom_site_symmetry_multiplicity
 _atom_site_fract_x
 _atom_site_fract_y
 _atom_site_fract_z
 _atom_site_occupancy
  Li  Li0  1  0.01093377  0.99631648  0.25000036  1
  Li  Li1  1  0.48906733  0.49631640  0.25000036  1
  Li  Li2  1  0.51093306  0.50368344  0.74999987  1
  Li  Li3  1  0.98906663  0.00368352  0.74999987  1
  O  O4  1  0.66121122  0.32893775  0.07328237  1
  O  O5  1  0.83878665  0.82893767  0.07328237  1
  O  O6  1  0.13857053  0.42697688  0.25000036  1
  O  O7  1  0.36142876  0.92697680  0.25000036  1
  O  O8  1  0.66121122  0.32893775  0.42671713  1
  O  O9  1  0.83878665  0.82893767  0.42671713  1
  O  O10  1  0.16121374  0.17106217  0.57328310  1
  O  O11  1  0.33878736  0.67106209  0.57328310  1
  O  O12  1  0.63857163  0.07302304  0.74999987  1
  O  O13  1  0.86142805  0.57302296  0.74999987  1
  O  O14  1  0.16121374  0.17106217  0.92671786  1
  O  O15  1  0.33878736  0.67106209  0.92671786  1
  Pa  Pa16  1  0.50000110  0.00000000  0.00000000  1
  Pa  Pa17  1  0.00000000  0.49999992  0.00000000  1
  Pa  Pa18  1  0.50000110  0.00000000  0.50000073  1
  Pa  Pa19  1  0.00000000  0.49999992  0.50000073  1
