# generated using pymatgen
data_LiPaO3
_symmetry_space_group_name_H-M   'P 1'
_cell_length_a   5.19489148
_cell_length_b   5.75118749
_cell_length_c   7.38302503
_cell_angle_alpha   90.00000000
_cell_angle_beta   90.00000000
_cell_angle_gamma   90.00000000
_symmetry_Int_Tables_number   1
_chemical_formula_structural   LiPaO3
_chemical_formula_sum   'Li4 Pa4 O12'
_cell_volume   220.58112471
_cell_formula_units_Z   4
loop_
 _symmetry_equiv_pos_site_id
 _symmetry_equiv_pos_as_xyz
  1  'x, y, z'
loop_
 _atom_site_type_symbol
 _atom_site_label
 _atom_site_symmetry_multiplicity
 _atom_site_fract_x
 _atom_site_fract_y
 _atom_site_fract_z
 _atom_site_occupancy
  Li  Li0  1  0.50000082  0.00000000  0.00000000  1
  Li  Li1  1  0.00000000  0.49999935  0.00000000  1
  Li  Li2  1  0.50000082  0.00000000  0.49999966  1
  Li  Li3  1  0.00000000  0.49999935  0.49999966  1
  O  O4  1  0.67764649  0.32585097  0.06619103  1
  O  O5  1  0.82235404  0.82585032  0.06619103  1
  O  O6  1  0.14086339  0.44839609  0.25000051  1
  O  O7  1  0.35913743  0.94839544  0.25000051  1
  O  O8  1  0.67764649  0.32585097  0.43380999  1
  O  O9  1  0.82235404  0.82585032  0.43380999  1
  O  O10  1  0.17764567  0.17415012  0.56619068  1
  O  O11  1  0.32235322  0.67414947  0.56619068  1
  O  O12  1  0.64086420  0.05160326  0.75000017  1
  O  O13  1  0.85913633  0.55160434  0.75000017  1
  O  O14  1  0.17764567  0.17415012  0.93380965  1
  O  O15  1  0.32235322  0.67414947  0.93380965  1
  Pa  Pa16  1  0.97273639  0.09895000  0.25000051  1
  Pa  Pa17  1  0.52726222  0.59894935  0.25000051  1
  Pa  Pa18  1  0.47273750  0.40105109  0.75000017  1
  Pa  Pa19  1  0.02726332  0.90105044  0.75000017  1
