# generated using pymatgen
data_KGdO3
_symmetry_space_group_name_H-M   'P 1'
_cell_length_a   6.26299837
_cell_length_b   6.28737679
_cell_length_c   8.87100439
_cell_angle_alpha   90.00000000
_cell_angle_beta   90.00000000
_cell_angle_gamma   90.00000000
_symmetry_Int_Tables_number   1
_chemical_formula_structural   KGdO3
_chemical_formula_sum   'K4 Gd4 O12'
_cell_volume   349.32090755
_cell_formula_units_Z   4
loop_
 _symmetry_equiv_pos_site_id
 _symmetry_equiv_pos_as_xyz
  1  'x, y, z'
loop_
 _atom_site_type_symbol
 _atom_site_label
 _atom_site_symmetry_multiplicity
 _atom_site_fract_x
 _atom_site_fract_y
 _atom_site_fract_z
 _atom_site_occupancy
  Gd  Gd0  1  0.49999853  0.00000000  0.00000000  1
  Gd  Gd1  1  0.00000000  0.49999867  0.00000000  1
  Gd  Gd2  1  0.49999853  0.00000000  0.49999975  1
  Gd  Gd3  1  0.00000000  0.49999867  0.49999975  1
  K  K4  1  0.99759087  0.01135450  0.24999988  1
  K  K5  1  0.50240952  0.51135475  0.24999988  1
  K  K6  1  0.49759074  0.48864576  0.74999963  1
  K  K7  1  0.00240939  0.98864601  0.74999963  1
  O  O8  1  0.72576580  0.27374851  0.02352834  1
  O  O9  1  0.77423300  0.77374876  0.02352834  1
  O  O10  1  0.04476769  0.48223132  0.24999988  1
  O  O11  1  0.45523084  0.98223317  0.24999988  1
  O  O12  1  0.72576580  0.27374851  0.47647141  1
  O  O13  1  0.77423300  0.77374876  0.47647141  1
  O  O14  1  0.22576726  0.22625175  0.52352809  1
  O  O15  1  0.27423446  0.72625042  0.52352809  1
  O  O16  1  0.54476942  0.01776735  0.74999963  1
  O  O17  1  0.95523257  0.51776919  0.74999963  1
  O  O18  1  0.22576726  0.22625175  0.97647229  1
  O  O19  1  0.27423446  0.72625042  0.97647229  1
