# generated using pymatgen
data_KBiO3
_symmetry_space_group_name_H-M   'P 1'
_cell_length_a   5.97041548
_cell_length_b   5.91160403
_cell_length_c   8.41208343
_cell_angle_alpha   90.00000000
_cell_angle_beta   90.00000000
_cell_angle_gamma   90.00000000
_symmetry_Int_Tables_number   1
_chemical_formula_structural   KBiO3
_chemical_formula_sum   'K4 Bi4 O12'
_cell_volume   296.90223234
_cell_formula_units_Z   4
loop_
 _symmetry_equiv_pos_site_id
 _symmetry_equiv_pos_as_xyz
  1  'x, y, z'
loop_
 _atom_site_type_symbol
 _atom_site_label
 _atom_site_symmetry_multiplicity
 _atom_site_fract_x
 _atom_site_fract_y
 _atom_site_fract_z
 _atom_site_occupancy
  Bi  Bi0  1  0.50000038  0.00000000  0.00000000  1
  Bi  Bi1  1  0.00000000  0.49999966  0.00000000  1
  Bi  Bi2  1  0.50000038  0.00000000  0.49999980  1
  Bi  Bi3  1  0.00000000  0.49999966  0.49999980  1
  K  K4  1  0.99817341  0.01664185  0.24999990  1
  K  K5  1  0.50182605  0.51664320  0.24999990  1
  K  K6  1  0.49817304  0.48335781  0.75000088  1
  K  K7  1  0.00182734  0.98335747  0.75000088  1
  O  O8  1  0.71921628  0.28068524  0.02736540  1
  O  O9  1  0.78078318  0.78068321  0.02736540  1
  O  O10  1  0.05436808  0.49714257  0.24999990  1
  O  O11  1  0.44563063  0.99714053  0.24999990  1
  O  O12  1  0.71921628  0.28068524  0.47263440  1
  O  O13  1  0.78078318  0.78068321  0.47263440  1
  O  O14  1  0.21921757  0.21931611  0.52736519  1
  O  O15  1  0.28078280  0.71931577  0.52736519  1
  O  O16  1  0.55436845  0.00285878  0.75000088  1
  O  O17  1  0.94563101  0.50285844  0.75000088  1
  O  O18  1  0.21921757  0.21931611  0.97263419  1
  O  O19  1  0.28078280  0.71931577  0.97263419  1
