# generated using pymatgen
data_CdTcO3
_symmetry_space_group_name_H-M   'P 1'
_cell_length_a   5.45780100
_cell_length_b   5.54841400
_cell_length_c   7.89116400
_cell_angle_alpha   90.00000000
_cell_angle_beta   90.00000000
_cell_angle_gamma   90.00000000
_symmetry_Int_Tables_number   1
_chemical_formula_structural   CdTcO3
_chemical_formula_sum   'Cd4 Tc4 O12'
_cell_volume   238.96132889
_cell_formula_units_Z   4
loop_
 _symmetry_equiv_pos_site_id
 _symmetry_equiv_pos_as_xyz
  1  'x, y, z'
loop_
 _atom_site_type_symbol
 _atom_site_label
 _atom_site_symmetry_multiplicity
 _atom_site_fract_x
 _atom_site_fract_y
 _atom_site_fract_z
 _atom_site_occupancy
  Cd  Cd0  1  0.50789700  0.54541000  0.25000000  1
  Cd  Cd1  1  0.99210300  0.04541000  0.25000000  1
  Cd  Cd2  1  0.49210300  0.45459000  0.75000000  1
  Cd  Cd3  1  0.00789700  0.95459000  0.75000000  1
  Tc  Tc4  1  0.00000000  0.50000000  0.00000000  1
  Tc  Tc5  1  0.50000000  0.00000000  0.50000000  1
  Tc  Tc6  1  0.00000000  0.50000000  0.50000000  1
  Tc  Tc7  1  0.50000000  0.00000000  0.00000000  1
  O  O8  1  0.80653500  0.80454500  0.05378900  1
  O  O9  1  0.69346500  0.30454500  0.44621100  1
  O  O10  1  0.19346500  0.19545500  0.55378900  1
  O  O11  1  0.30653500  0.69545500  0.94621100  1
  O  O12  1  0.19346500  0.19545500  0.94621100  1
  O  O13  1  0.30653500  0.69545500  0.55378900  1
  O  O14  1  0.80653500  0.80454500  0.44621100  1
  O  O15  1  0.69346500  0.30454500  0.05378900  1
  O  O16  1  0.39901400  0.95663600  0.25000000  1
  O  O17  1  0.10098600  0.45663600  0.25000000  1
  O  O18  1  0.60098600  0.04336400  0.75000000  1
  O  O19  1  0.89901400  0.54336400  0.75000000  1
