# generated using pymatgen
data_ErLuO3
_symmetry_space_group_name_H-M   'P 1'
_cell_length_a   5.58268800
_cell_length_b   5.84386600
_cell_length_c   8.22650500
_cell_angle_alpha   90.00000000
_cell_angle_beta   90.00000000
_cell_angle_gamma   90.00000000
_symmetry_Int_Tables_number   1
_chemical_formula_structural   ErLuO3
_chemical_formula_sum   'Er4 Lu4 O12'
_cell_volume   268.38545271
_cell_formula_units_Z   4
loop_
 _symmetry_equiv_pos_site_id
 _symmetry_equiv_pos_as_xyz
  1  'x, y, z'
loop_
 _atom_site_type_symbol
 _atom_site_label
 _atom_site_symmetry_multiplicity
 _atom_site_fract_x
 _atom_site_fract_y
 _atom_site_fract_z
 _atom_site_occupancy
  Er  Er0  1  0.98723800  0.05224800  0.25000000  1
  Er  Er1  1  0.48723800  0.44775200  0.75000000  1
  Er  Er2  1  0.51276200  0.55224800  0.25000000  1
  Er  Er3  1  0.01276200  0.94775200  0.75000000  1
  Lu  Lu4  1  0.50000000  0.00000000  0.00000000  1
  Lu  Lu5  1  0.50000000  0.00000000  0.50000000  1
  Lu  Lu6  1  0.00000000  0.50000000  0.00000000  1
  Lu  Lu7  1  0.00000000  0.50000000  0.50000000  1
  O  O8  1  0.64218700  0.07454900  0.75000000  1
  O  O9  1  0.17818100  0.18205600  0.57403500  1
  O  O10  1  0.17818100  0.18205600  0.92596500  1
  O  O11  1  0.67818100  0.31794400  0.42596500  1
  O  O12  1  0.67818100  0.31794400  0.07403500  1
  O  O13  1  0.14218700  0.42545100  0.25000000  1
  O  O14  1  0.85781300  0.57454900  0.75000000  1
  O  O15  1  0.32181900  0.68205600  0.57403500  1
  O  O16  1  0.32181900  0.68205600  0.92596500  1
  O  O17  1  0.82181900  0.81794400  0.07403500  1
  O  O18  1  0.82181900  0.81794400  0.42596500  1
  O  O19  1  0.35781300  0.92545100  0.25000000  1
