# generated using pymatgen
data_EuRuO3
_symmetry_space_group_name_H-M   'P 1'
_cell_length_a   3.98363501
_cell_length_b   3.98509701
_cell_length_c   3.98531301
_cell_angle_alpha   89.99935287
_cell_angle_beta   90.00580944
_cell_angle_gamma   90.00635604
_symmetry_Int_Tables_number   1
_chemical_formula_structural   EuRuO3
_chemical_formula_sum   'Eu1 Ru1 O3'
_cell_volume   63.26752854
_cell_formula_units_Z   1
loop_
 _symmetry_equiv_pos_site_id
 _symmetry_equiv_pos_as_xyz
  1  'x, y, z'
loop_
 _atom_site_type_symbol
 _atom_site_label
 _atom_site_symmetry_multiplicity
 _atom_site_fract_x
 _atom_site_fract_y
 _atom_site_fract_z
 _atom_site_occupancy
  Eu  Eu0  1  0.00001200  0.00000100  0.99999600  1
  Ru  Ru1  1  0.50000100  0.49999600  0.50000200  1
  O  O2  1  0.50000000  0.50001400  0.00000000  1
  O  O3  1  0.49999200  0.99999800  0.49999900  1
  O  O4  1  0.00000100  0.49999700  0.50000900  1
