# generated using pymatgen
data_EuRuO3
_symmetry_space_group_name_H-M   'P 1'
_cell_length_a   5.41327355
_cell_length_b   5.57122812
_cell_length_c   7.73829288
_cell_angle_alpha   90.00000000
_cell_angle_beta   90.00000000
_cell_angle_gamma   90.00000000
_symmetry_Int_Tables_number   1
_chemical_formula_structural   EuRuO3
_chemical_formula_sum   'Eu4 Ru4 O12'
_cell_volume   233.37593911
_cell_formula_units_Z   4
loop_
 _symmetry_equiv_pos_site_id
 _symmetry_equiv_pos_as_xyz
  1  'x, y, z'
loop_
 _atom_site_type_symbol
 _atom_site_label
 _atom_site_symmetry_multiplicity
 _atom_site_fract_x
 _atom_site_fract_y
 _atom_site_fract_z
 _atom_site_occupancy
  Eu  Eu0  1  0.98702937  0.05335269  0.25000088  1
  Eu  Eu1  1  0.51297057  0.55335196  0.25000088  1
  Eu  Eu2  1  0.48703062  0.44664838  0.75000004  1
  Eu  Eu3  1  0.01296812  0.94664944  0.75000004  1
  O  O4  1  0.70234581  0.29469265  0.04163321  1
  O  O5  1  0.79765228  0.79469372  0.04163321  1
  O  O6  1  0.08094363  0.48399562  0.25000088  1
  O  O7  1  0.41905697  0.98399489  0.25000088  1
  O  O8  1  0.70234581  0.29469265  0.45836725  1
  O  O9  1  0.79765228  0.79469372  0.45836725  1
  O  O10  1  0.20234706  0.20530662  0.54163238  1
  O  O11  1  0.29765353  0.70530589  0.54163238  1
  O  O12  1  0.58094422  0.01600365  0.75000004  1
  O  O13  1  0.91905572  0.51600292  0.75000004  1
  O  O14  1  0.20234706  0.20530662  0.95836771  1
  O  O15  1  0.29765353  0.70530589  0.95836771  1
  Ru  Ru16  1  0.49999875  0.00000000  0.00000000  1
  Ru  Ru17  1  0.00000000  0.49999927  0.00000000  1
  Ru  Ru18  1  0.49999875  0.00000000  0.49999917  1
  Ru  Ru19  1  0.00000000  0.49999927  0.49999917  1
