# generated using pymatgen
data_HoInO3
_symmetry_space_group_name_H-M   'P 1'
_cell_length_a   5.52587000
_cell_length_b   5.85997000
_cell_length_c   8.18810400
_cell_angle_alpha   90.00000000
_cell_angle_beta   90.00000000
_cell_angle_gamma   90.00000000
_symmetry_Int_Tables_number   1
_chemical_formula_structural   HoInO3
_chemical_formula_sum   'Ho4 In4 O12'
_cell_volume   265.14253636
_cell_formula_units_Z   4
loop_
 _symmetry_equiv_pos_site_id
 _symmetry_equiv_pos_as_xyz
  1  'x, y, z'
loop_
 _atom_site_type_symbol
 _atom_site_label
 _atom_site_symmetry_multiplicity
 _atom_site_fract_x
 _atom_site_fract_y
 _atom_site_fract_z
 _atom_site_occupancy
  Ho  Ho0  1  0.02005600  0.93526000  0.75000000  1
  Ho  Ho1  1  0.47994400  0.43526000  0.75000000  1
  Ho  Ho2  1  0.52005600  0.56474000  0.25000000  1
  Ho  Ho3  1  0.97994400  0.06474000  0.25000000  1
  In  In4  1  0.00000000  0.50000000  0.00000000  1
  In  In5  1  0.00000000  0.50000000  0.50000000  1
  In  In6  1  0.50000000  0.00000000  0.00000000  1
  In  In7  1  0.50000000  0.00000000  0.50000000  1
  O  O8  1  0.14729200  0.42663000  0.25000000  1
  O  O9  1  0.18130600  0.18520800  0.57487900  1
  O  O10  1  0.18130600  0.18520800  0.92512100  1
  O  O11  1  0.31869400  0.68520800  0.57487900  1
  O  O12  1  0.31869400  0.68520800  0.92512100  1
  O  O13  1  0.35270800  0.92663000  0.25000000  1
  O  O14  1  0.64729200  0.07337000  0.75000000  1
  O  O15  1  0.68130600  0.31479200  0.07487900  1
  O  O16  1  0.68130600  0.31479200  0.42512100  1
  O  O17  1  0.81869400  0.81479200  0.07487900  1
  O  O18  1  0.81869400  0.81479200  0.42512100  1
  O  O19  1  0.85270800  0.57337000  0.75000000  1
