# generated using pymatgen
data_UCrS3
_symmetry_space_group_name_H-M   'P 1'
_cell_length_a   6.10344200
_cell_length_b   7.06934700
_cell_length_c   8.86798400
_cell_angle_alpha   90.00000000
_cell_angle_beta   90.00000000
_cell_angle_gamma   90.00000000
_symmetry_Int_Tables_number   1
_chemical_formula_structural   UCrS3
_chemical_formula_sum   'U4 Cr4 S12'
_cell_volume   382.63000405
_cell_formula_units_Z   4
loop_
 _symmetry_equiv_pos_site_id
 _symmetry_equiv_pos_as_xyz
  1  'x, y, z'
loop_
 _atom_site_type_symbol
 _atom_site_label
 _atom_site_symmetry_multiplicity
 _atom_site_fract_x
 _atom_site_fract_y
 _atom_site_fract_z
 _atom_site_occupancy
  U  U0  1  0.94337100  0.38133200  0.25000000  1
  U  U1  1  0.44337100  0.11866800  0.75000000  1
  U  U2  1  0.55662900  0.88133200  0.25000000  1
  U  U3  1  0.05662900  0.61866800  0.75000000  1
  Cr  Cr4  1  0.00000000  0.00000000  0.00000000  1
  Cr  Cr5  1  0.00000000  0.00000000  0.50000000  1
  Cr  Cr6  1  0.50000000  0.50000000  0.50000000  1
  Cr  Cr7  1  0.50000000  0.50000000  0.00000000  1
  S  S8  1  0.33412400  0.82074800  0.94205400  1
  S  S9  1  0.16587600  0.32074800  0.94205400  1
  S  S10  1  0.66587600  0.17925200  0.05794600  1
  S  S11  1  0.33412400  0.82074800  0.55794600  1
  S  S12  1  0.14527200  0.04165500  0.25000000  1
  S  S13  1  0.64527200  0.45834500  0.75000000  1
  S  S14  1  0.35472800  0.54165500  0.25000000  1
  S  S15  1  0.85472800  0.95834500  0.75000000  1
  S  S16  1  0.16587600  0.32074800  0.55794600  1
  S  S17  1  0.66587600  0.17925200  0.44205400  1
  S  S18  1  0.83412400  0.67925200  0.05794600  1
  S  S19  1  0.83412400  0.67925200  0.44205400  1
