# generated using pymatgen
data_LuNpO3
_symmetry_space_group_name_H-M   'P 1'
_cell_length_a   5.71974702
_cell_length_b   6.00619360
_cell_length_c   8.22905065
_cell_angle_alpha   90.00000000
_cell_angle_beta   90.00000000
_cell_angle_gamma   90.00000000
_symmetry_Int_Tables_number   1
_chemical_formula_structural   LuNpO3
_chemical_formula_sum   'Lu4 Np4 O12'
_cell_volume   282.70004836
_cell_formula_units_Z   4
loop_
 _symmetry_equiv_pos_site_id
 _symmetry_equiv_pos_as_xyz
  1  'x, y, z'
loop_
 _atom_site_type_symbol
 _atom_site_label
 _atom_site_symmetry_multiplicity
 _atom_site_fract_x
 _atom_site_fract_y
 _atom_site_fract_z
 _atom_site_occupancy
  Lu  Lu0  1  0.49999939  0.00000000  0.00000000  1
  Lu  Lu1  1  0.00000000  0.50000053  0.00000000  1
  Lu  Lu2  1  0.49999939  0.00000000  0.49999935  1
  Lu  Lu3  1  0.00000000  0.50000053  0.49999935  1
  Np  Np4  1  0.98687931  0.05622196  0.24999968  1
  Np  Np5  1  0.51312234  0.55622250  0.24999968  1
  Np  Np6  1  0.48687818  0.44377690  0.74999903  1
  Np  Np7  1  0.01312121  0.94377744  0.74999903  1
  O  O8  1  0.68654785  0.30943558  0.06114922  1
  O  O9  1  0.81345206  0.80943611  0.06114922  1
  O  O10  1  0.12254563  0.45110101  0.24999968  1
  O  O11  1  0.37745376  0.95109988  0.24999968  1
  O  O12  1  0.68654785  0.30943558  0.43885135  1
  O  O13  1  0.81345206  0.80943611  0.43885135  1
  O  O14  1  0.18654671  0.19056495  0.56114978  1
  O  O15  1  0.31345267  0.69056382  0.56114978  1
  O  O16  1  0.62254676  0.04889952  0.74999903  1
  O  O17  1  0.87745314  0.54890006  0.74999903  1
  O  O18  1  0.18654671  0.19056495  0.93885192  1
  O  O19  1  0.31345267  0.69056382  0.93885192  1
