# generated using pymatgen
data_TbCuO3
_symmetry_space_group_name_H-M   'P 1'
_cell_length_a   5.23016067
_cell_length_b   5.85762042
_cell_length_c   7.22770662
_cell_angle_alpha   90.00000000
_cell_angle_beta   90.00000000
_cell_angle_gamma   90.00000000
_symmetry_Int_Tables_number   1
_chemical_formula_structural   TbCuO3
_chemical_formula_sum   'Tb4 Cu4 O12'
_cell_volume   221.43015893
_cell_formula_units_Z   4
loop_
 _symmetry_equiv_pos_site_id
 _symmetry_equiv_pos_as_xyz
  1  'x, y, z'
loop_
 _atom_site_type_symbol
 _atom_site_label
 _atom_site_symmetry_multiplicity
 _atom_site_fract_x
 _atom_site_fract_y
 _atom_site_fract_z
 _atom_site_occupancy
  Cu  Cu0  1  0.49999994  0.00000000  0.00000000  1
  Cu  Cu1  1  0.00000000  0.49999996  0.00000000  1
  Cu  Cu2  1  0.49999994  0.00000000  0.49999954  1
  Cu  Cu3  1  0.00000000  0.49999996  0.49999954  1
  O  O4  1  0.70932811  0.33003675  0.04918849  1
  O  O5  1  0.79067169  0.83003671  0.04918849  1
  O  O6  1  0.10866205  0.46951147  0.25000046  1
  O  O7  1  0.39133788  0.96951144  0.25000046  1
  O  O8  1  0.70932811  0.33003675  0.45081105  1
  O  O9  1  0.79067169  0.83003671  0.45081105  1
  O  O10  1  0.20932818  0.16996322  0.54918804  1
  O  O11  1  0.29067176  0.66996318  0.54918804  1
  O  O12  1  0.60866199  0.03048849  0.75000001  1
  O  O13  1  0.89133782  0.53048845  0.75000001  1
  O  O14  1  0.20932818  0.16996322  0.95081197  1
  O  O15  1  0.29067176  0.66996318  0.95081197  1
  Tb  Tb16  1  0.97621858  0.09179325  0.25000046  1
  Tb  Tb17  1  0.52378123  0.59179321  0.25000046  1
  Tb  Tb18  1  0.47621864  0.40820672  0.75000001  1
  Tb  Tb19  1  0.02378130  0.90820668  0.75000001  1
