# generated using pymatgen
data_UVS3
_symmetry_space_group_name_H-M   'P 1'
_cell_length_a   6.08649800
_cell_length_b   6.98295000
_cell_length_c   8.96812200
_cell_angle_alpha   90.00000000
_cell_angle_beta   90.00000000
_cell_angle_gamma   90.00000000
_symmetry_Int_Tables_number   1
_chemical_formula_structural   UVS3
_chemical_formula_sum   'U4 V4 S12'
_cell_volume   381.16053133
_cell_formula_units_Z   4
loop_
 _symmetry_equiv_pos_site_id
 _symmetry_equiv_pos_as_xyz
  1  'x, y, z'
loop_
 _atom_site_type_symbol
 _atom_site_label
 _atom_site_symmetry_multiplicity
 _atom_site_fract_x
 _atom_site_fract_y
 _atom_site_fract_z
 _atom_site_occupancy
  U  U0  1  0.55501500  0.38641500  0.75000000  1
  U  U1  1  0.44498500  0.61358500  0.25000000  1
  U  U2  1  0.05501500  0.11358500  0.25000000  1
  U  U3  1  0.94498500  0.88641500  0.75000000  1
  V  V4  1  0.00000000  0.50000000  0.00000000  1
  V  V5  1  0.00000000  0.50000000  0.50000000  1
  V  V6  1  0.50000000  0.00000000  0.50000000  1
  V  V7  1  0.50000000  0.00000000  0.00000000  1
  S  S8  1  0.83645200  0.18494300  0.56115600  1
  S  S9  1  0.16354800  0.81505700  0.06115600  1
  S  S10  1  0.33645200  0.31505700  0.06115600  1
  S  S11  1  0.66354800  0.68494300  0.56115600  1
  S  S12  1  0.83645200  0.18494300  0.93884400  1
  S  S13  1  0.16354800  0.81505700  0.43884400  1
  S  S14  1  0.33645200  0.31505700  0.43884400  1
  S  S15  1  0.66354800  0.68494300  0.93884400  1
  S  S16  1  0.85390200  0.45634300  0.25000000  1
  S  S17  1  0.14609800  0.54365700  0.75000000  1
  S  S18  1  0.35390200  0.04365700  0.75000000  1
  S  S19  1  0.64609800  0.95634300  0.25000000  1
