# generated using pymatgen
data_MgFeO3
_symmetry_space_group_name_H-M   'P 1'
_cell_length_a   5.06412100
_cell_length_b   5.27674900
_cell_length_c   7.45073300
_cell_angle_alpha   90.00000000
_cell_angle_beta   90.00000000
_cell_angle_gamma   90.00000000
_symmetry_Int_Tables_number   1
_chemical_formula_structural   MgFeO3
_chemical_formula_sum   'Mg4 Fe4 O12'
_cell_volume   199.09919819
_cell_formula_units_Z   4
loop_
 _symmetry_equiv_pos_site_id
 _symmetry_equiv_pos_as_xyz
  1  'x, y, z'
loop_
 _atom_site_type_symbol
 _atom_site_label
 _atom_site_symmetry_multiplicity
 _atom_site_fract_x
 _atom_site_fract_y
 _atom_site_fract_z
 _atom_site_occupancy
  Mg  Mg0  1  0.98515800  0.06383100  0.25000000  1
  Mg  Mg1  1  0.48515800  0.43616900  0.75000000  1
  Mg  Mg2  1  0.51484200  0.56383100  0.25000000  1
  Mg  Mg3  1  0.01484200  0.93616900  0.75000000  1
  Fe  Fe4  1  0.50000000  0.00000000  0.00000000  1
  Fe  Fe5  1  0.00000000  0.50000000  0.00000000  1
  Fe  Fe6  1  0.00000000  0.50000000  0.50000000  1
  Fe  Fe7  1  0.50000000  0.00000000  0.50000000  1
  O  O8  1  0.87332400  0.55787200  0.75000000  1
  O  O9  1  0.37332400  0.94212800  0.25000000  1
  O  O10  1  0.62667600  0.05787200  0.75000000  1
  O  O11  1  0.12667600  0.44212800  0.25000000  1
  O  O12  1  0.68837900  0.31005000  0.43309700  1
  O  O13  1  0.18837900  0.18995000  0.56690300  1
  O  O14  1  0.81162100  0.81005000  0.06690300  1
  O  O15  1  0.31162100  0.68995000  0.93309700  1
  O  O16  1  0.68837900  0.31005000  0.06690300  1
  O  O17  1  0.18837900  0.18995000  0.93309700  1
  O  O18  1  0.31162100  0.68995000  0.56690300  1
  O  O19  1  0.81162100  0.81005000  0.43309700  1
