# generated using pymatgen
data_TmGaO3
_symmetry_space_group_name_H-M   'P 1'
_cell_length_a   5.24091300
_cell_length_b   5.57066000
_cell_length_c   7.59972500
_cell_angle_alpha   90.00000000
_cell_angle_beta   90.00000000
_cell_angle_gamma   90.00000000
_symmetry_Int_Tables_number   1
_chemical_formula_structural   TmGaO3
_chemical_formula_sum   'Tm4 Ga4 O12'
_cell_volume   221.87658882
_cell_formula_units_Z   4
loop_
 _symmetry_equiv_pos_site_id
 _symmetry_equiv_pos_as_xyz
  1  'x, y, z'
loop_
 _atom_site_type_symbol
 _atom_site_label
 _atom_site_symmetry_multiplicity
 _atom_site_fract_x
 _atom_site_fract_y
 _atom_site_fract_z
 _atom_site_occupancy
  Tm  Tm0  1  0.02182200  0.07137700  0.75000000  1
  Tm  Tm1  1  0.47817800  0.57137700  0.75000000  1
  Tm  Tm2  1  0.52182200  0.42862300  0.25000000  1
  Tm  Tm3  1  0.97817800  0.92862300  0.25000000  1
  Ga  Ga4  1  0.00000000  0.50000000  0.50000000  1
  Ga  Ga5  1  0.50000000  0.00000000  0.50000000  1
  Ga  Ga6  1  0.50000000  0.00000000  0.00000000  1
  Ga  Ga7  1  0.00000000  0.50000000  0.00000000  1
  O  O8  1  0.12080900  0.54561100  0.25000000  1
  O  O9  1  0.19159700  0.80565800  0.56152200  1
  O  O10  1  0.19159700  0.80565800  0.93847800  1
  O  O11  1  0.30840300  0.30565800  0.93847800  1
  O  O12  1  0.30840300  0.30565800  0.56152200  1
  O  O13  1  0.37919100  0.04561100  0.25000000  1
  O  O14  1  0.62080900  0.95438900  0.75000000  1
  O  O15  1  0.69159700  0.69434200  0.06152200  1
  O  O16  1  0.69159700  0.69434200  0.43847800  1
  O  O17  1  0.80840300  0.19434200  0.43847800  1
  O  O18  1  0.80840300  0.19434200  0.06152200  1
  O  O19  1  0.87919100  0.45438900  0.75000000  1
