# generated using pymatgen
data_TmGaO3
_symmetry_space_group_name_H-M   'P 1'
_cell_length_a   3.59212989
_cell_length_b   3.59212989
_cell_length_c   4.67395845
_cell_angle_alpha   90.00000000
_cell_angle_beta   90.00000000
_cell_angle_gamma   90.00000000
_symmetry_Int_Tables_number   1
_chemical_formula_structural   TmGaO3
_chemical_formula_sum   'Tm1 Ga1 O3'
_cell_volume   60.30994199
_cell_formula_units_Z   1
loop_
 _symmetry_equiv_pos_site_id
 _symmetry_equiv_pos_as_xyz
  1  'x, y, z'
loop_
 _atom_site_type_symbol
 _atom_site_label
 _atom_site_symmetry_multiplicity
 _atom_site_fract_x
 _atom_site_fract_y
 _atom_site_fract_z
 _atom_site_occupancy
  Ga  Ga0  1  0.49999862  0.49999862  0.51454244  1
  O  O1  1  0.49999862  0.49999862  0.12077771  1
  O  O2  1  0.49999862  0.00000000  0.66225878  1
  O  O3  1  0.00000000  0.49999862  0.66225878  1
  Tm  Tm4  1  0.00000000  0.00000000  0.94016026  1
