# generated using pymatgen
data_TiSnO3
_symmetry_space_group_name_H-M   'P 1'
_cell_length_a   5.53447698
_cell_length_b   5.53001124
_cell_length_c   7.83451589
_cell_angle_alpha   90.00000000
_cell_angle_beta   90.00000000
_cell_angle_gamma   90.00000000
_symmetry_Int_Tables_number   1
_chemical_formula_structural   TiSnO3
_chemical_formula_sum   'Ti4 Sn4 O12'
_cell_volume   239.78099892
_cell_formula_units_Z   4
loop_
 _symmetry_equiv_pos_site_id
 _symmetry_equiv_pos_as_xyz
  1  'x, y, z'
loop_
 _atom_site_type_symbol
 _atom_site_label
 _atom_site_symmetry_multiplicity
 _atom_site_fract_x
 _atom_site_fract_y
 _atom_site_fract_z
 _atom_site_occupancy
  O  O0  1  0.72151533  0.27901752  0.02680829  1
  O  O1  1  0.77848368  0.77901831  0.02680829  1
  O  O2  1  0.05485433  0.49178200  0.25000013  1
  O  O3  1  0.44514595  0.99178099  0.25000013  1
  O  O4  1  0.72151533  0.27901752  0.47319197  1
  O  O5  1  0.77848368  0.77901831  0.47319197  1
  O  O6  1  0.22151687  0.22098147  0.52680856  1
  O  O7  1  0.27848341  0.72098226  0.52680856  1
  O  O8  1  0.55485460  0.00821879  0.75000039  1
  O  O9  1  0.94514622  0.50821777  0.75000039  1
  O  O10  1  0.22151687  0.22098147  0.97319223  1
  O  O11  1  0.27848341  0.72098226  0.97319223  1
  Sn  Sn12  1  0.00056735  0.02142672  0.25000013  1
  Sn  Sn13  1  0.49943111  0.52142751  0.25000013  1
  Sn  Sn14  1  0.50056943  0.47857226  0.75000039  1
  Sn  Sn15  1  0.99943139  0.97857306  0.75000039  1
  Ti  Ti16  1  0.50000027  0.00000000  0.00000000  1
  Ti  Ti17  1  0.00000000  0.50000079  0.00000000  1
  Ti  Ti18  1  0.50000027  0.00000000  0.50000026  1
  Ti  Ti19  1  0.00000000  0.50000079  0.50000026  1
