# generated using pymatgen
data_KPtO3
_symmetry_space_group_name_H-M   'P 1'
_cell_length_a   5.63943445
_cell_length_b   5.57465554
_cell_length_c   7.96311576
_cell_angle_alpha   90.00000000
_cell_angle_beta   90.00000000
_cell_angle_gamma   90.00000000
_symmetry_Int_Tables_number   1
_chemical_formula_structural   KPtO3
_chemical_formula_sum   'K4 Pt4 O12'
_cell_volume   250.34367277
_cell_formula_units_Z   4
loop_
 _symmetry_equiv_pos_site_id
 _symmetry_equiv_pos_as_xyz
  1  'x, y, z'
loop_
 _atom_site_type_symbol
 _atom_site_label
 _atom_site_symmetry_multiplicity
 _atom_site_fract_x
 _atom_site_fract_y
 _atom_site_fract_z
 _atom_site_occupancy
  K  K0  1  0.99475932  0.03025658  0.25000013  1
  K  K1  1  0.50524215  0.53025698  0.25000013  1
  K  K2  1  0.49475883  0.46974382  0.74999914  1
  K  K3  1  0.00523989  0.96974243  0.74999914  1
  O  O4  1  0.70920055  0.29108704  0.03140354  1
  O  O5  1  0.79079916  0.79108744  0.03140354  1
  O  O6  1  0.43344949  0.00205932  0.25000013  1
  O  O7  1  0.06654923  0.50205972  0.25000013  1
  O  O8  1  0.70920055  0.29108704  0.46859547  1
  O  O9  1  0.79079916  0.79108744  0.46859547  1
  O  O10  1  0.20920183  0.20891156  0.53140380  1
  O  O11  1  0.29080044  0.70891196  0.53140380  1
  O  O12  1  0.93344998  0.49794108  0.74999914  1
  O  O13  1  0.56654972  0.99794148  0.74999914  1
  O  O14  1  0.20920183  0.20891156  0.96859574  1
  O  O15  1  0.29080044  0.70891196  0.96859574  1
  Pt  Pt16  1  0.49999872  0.00000000  0.00000000  1
  Pt  Pt17  1  0.00000000  0.50000040  0.00000000  1
  Pt  Pt18  1  0.49999872  0.00000000  0.50000027  1
  Pt  Pt19  1  0.00000000  0.50000040  0.50000027  1
