# generated using pymatgen
data_MnTeO3
_symmetry_space_group_name_H-M   'P 1'
_cell_length_a   5.58730700
_cell_length_b   5.74639800
_cell_length_c   8.22700300
_cell_angle_alpha   90.00000000
_cell_angle_beta   90.00000000
_cell_angle_gamma   90.00000000
_symmetry_Int_Tables_number   1
_chemical_formula_structural   MnTeO3
_chemical_formula_sum   'Mn4 Te4 O12'
_cell_volume   264.14347846
_cell_formula_units_Z   4
loop_
 _symmetry_equiv_pos_site_id
 _symmetry_equiv_pos_as_xyz
  1  'x, y, z'
loop_
 _atom_site_type_symbol
 _atom_site_label
 _atom_site_symmetry_multiplicity
 _atom_site_fract_x
 _atom_site_fract_y
 _atom_site_fract_z
 _atom_site_occupancy
  Mn  Mn0  1  0.00516500  0.45561500  0.25000000  1
  Mn  Mn1  1  0.99483500  0.54438500  0.75000000  1
  Mn  Mn2  1  0.50516500  0.04438500  0.75000000  1
  Mn  Mn3  1  0.49483500  0.95561500  0.25000000  1
  Te  Te4  1  0.00000000  0.00000000  0.00000000  1
  Te  Te5  1  0.50000000  0.50000000  0.00000000  1
  Te  Te6  1  0.00000000  0.00000000  0.50000000  1
  Te  Te7  1  0.50000000  0.50000000  0.50000000  1
  O  O8  1  0.32533000  0.17951200  0.07441000  1
  O  O9  1  0.67467000  0.82048800  0.92559000  1
  O  O10  1  0.82533000  0.32048800  0.92559000  1
  O  O11  1  0.67467000  0.82048800  0.57441000  1
  O  O12  1  0.17467000  0.67951200  0.07441000  1
  O  O13  1  0.32533000  0.17951200  0.42559000  1
  O  O14  1  0.17467000  0.67951200  0.42559000  1
  O  O15  1  0.82533000  0.32048800  0.57441000  1
  O  O16  1  0.64090400  0.59474600  0.25000000  1
  O  O17  1  0.35909600  0.40525400  0.75000000  1
  O  O18  1  0.14090400  0.90525400  0.75000000  1
  O  O19  1  0.85909600  0.09474600  0.25000000  1
