# generated using pymatgen
data_HoLuO3
_symmetry_space_group_name_H-M   'P 1'
_cell_length_a   5.57601800
_cell_length_b   5.84943100
_cell_length_c   8.25877100
_cell_angle_alpha   90.00000000
_cell_angle_beta   90.00000000
_cell_angle_gamma   90.00000000
_symmetry_Int_Tables_number   1
_chemical_formula_structural   HoLuO3
_chemical_formula_sum   'Ho4 Lu4 O12'
_cell_volume   269.37247311
_cell_formula_units_Z   4
loop_
 _symmetry_equiv_pos_site_id
 _symmetry_equiv_pos_as_xyz
  1  'x, y, z'
loop_
 _atom_site_type_symbol
 _atom_site_label
 _atom_site_symmetry_multiplicity
 _atom_site_fract_x
 _atom_site_fract_y
 _atom_site_fract_z
 _atom_site_occupancy
  Ho  Ho0  1  0.01884200  0.94327000  0.75000000  1
  Ho  Ho1  1  0.48115800  0.44327000  0.75000000  1
  Ho  Ho2  1  0.51884200  0.55673000  0.25000000  1
  Ho  Ho3  1  0.98115800  0.05673000  0.25000000  1
  Lu  Lu4  1  0.00000000  0.50000000  0.00000000  1
  Lu  Lu5  1  0.00000000  0.50000000  0.50000000  1
  Lu  Lu6  1  0.50000000  0.00000000  0.00000000  1
  Lu  Lu7  1  0.50000000  0.00000000  0.50000000  1
  O  O8  1  0.14460200  0.43017200  0.25000000  1
  O  O9  1  0.18378800  0.18697300  0.57654900  1
  O  O10  1  0.18378800  0.18697300  0.92345100  1
  O  O11  1  0.31621200  0.68697300  0.92345100  1
  O  O12  1  0.31621200  0.68697300  0.57654900  1
  O  O13  1  0.35539800  0.93017200  0.25000000  1
  O  O14  1  0.64460200  0.06982800  0.75000000  1
  O  O15  1  0.68378800  0.31302700  0.07654900  1
  O  O16  1  0.68378800  0.31302700  0.42345100  1
  O  O17  1  0.81621200  0.81302700  0.07654900  1
  O  O18  1  0.81621200  0.81302700  0.42345100  1
  O  O19  1  0.85539800  0.56982800  0.75000000  1
