# generated using pymatgen
data_LaMgO3
_symmetry_space_group_name_H-M   'P 1'
_cell_length_a   5.48441452
_cell_length_b   5.76748085
_cell_length_c   7.83384199
_cell_angle_alpha   90.00000000
_cell_angle_beta   90.00000000
_cell_angle_gamma   90.00000000
_symmetry_Int_Tables_number   1
_chemical_formula_structural   LaMgO3
_chemical_formula_sum   'La4 Mg4 O12'
_cell_volume   247.79425934
_cell_formula_units_Z   4
loop_
 _symmetry_equiv_pos_site_id
 _symmetry_equiv_pos_as_xyz
  1  'x, y, z'
loop_
 _atom_site_type_symbol
 _atom_site_label
 _atom_site_symmetry_multiplicity
 _atom_site_fract_x
 _atom_site_fract_y
 _atom_site_fract_z
 _atom_site_occupancy
  La  La0  1  0.98423997  0.05933960  0.24999994  1
  La  La1  1  0.51575970  0.55933953  0.24999994  1
  La  La2  1  0.48423947  0.44066206  0.74999981  1
  La  La3  1  0.01576103  0.94066025  0.74999981  1
  Mg  Mg4  1  0.50000050  0.00000000  0.00000000  1
  Mg  Mg5  1  0.00000000  0.49999993  0.00000000  1
  Mg  Mg6  1  0.50000050  0.00000000  0.49999987  1
  Mg  Mg7  1  0.00000000  0.49999993  0.49999987  1
  O  O8  1  0.69552183  0.29831222  0.04815517  1
  O  O9  1  0.80447785  0.79831214  0.04815517  1
  O  O10  1  0.09089211  0.46626076  0.24999994  1
  O  O11  1  0.40910657  0.96626069  0.24999994  1
  O  O12  1  0.69552183  0.29831222  0.45184470  1
  O  O13  1  0.80447785  0.79831214  0.45184470  1
  O  O14  1  0.19552133  0.20168771  0.54815504  1
  O  O15  1  0.30447735  0.70168764  0.54815504  1
  O  O16  1  0.59089261  0.03373917  0.74999981  1
  O  O17  1  0.90910889  0.53373909  0.74999981  1
  O  O18  1  0.19552133  0.20168771  0.95184585  1
  O  O19  1  0.30447735  0.70168764  0.95184585  1
