# generated using pymatgen
data_EuInO3
_symmetry_space_group_name_H-M   'P 1'
_cell_length_a   5.71229300
_cell_length_b   5.99688300
_cell_length_c   8.16256900
_cell_angle_alpha   90.00000000
_cell_angle_beta   90.00000000
_cell_angle_gamma   90.00000000
_symmetry_Int_Tables_number   1
_chemical_formula_structural   EuInO3
_chemical_formula_sum   'Eu4 In4 O12'
_cell_volume   279.61657825
_cell_formula_units_Z   4
loop_
 _symmetry_equiv_pos_site_id
 _symmetry_equiv_pos_as_xyz
  1  'x, y, z'
loop_
 _atom_site_type_symbol
 _atom_site_label
 _atom_site_symmetry_multiplicity
 _atom_site_fract_x
 _atom_site_fract_y
 _atom_site_fract_z
 _atom_site_occupancy
  Eu  Eu0  1  0.01507100  0.43841700  0.25000000  1
  Eu  Eu1  1  0.98492900  0.56158300  0.75000000  1
  Eu  Eu2  1  0.51507100  0.06158300  0.75000000  1
  Eu  Eu3  1  0.48492900  0.93841700  0.25000000  1
  In  In4  1  0.00000000  0.00000000  0.00000000  1
  In  In5  1  0.50000000  0.50000000  0.00000000  1
  In  In6  1  0.00000000  0.00000000  0.50000000  1
  In  In7  1  0.50000000  0.50000000  0.50000000  1
  O  O8  1  0.31576300  0.18836100  0.06424600  1
  O  O9  1  0.68423700  0.81163900  0.93575400  1
  O  O10  1  0.81576300  0.31163900  0.93575400  1
  O  O11  1  0.68423700  0.81163900  0.56424600  1
  O  O12  1  0.18423700  0.68836100  0.06424600  1
  O  O13  1  0.31576300  0.18836100  0.43575400  1
  O  O14  1  0.18423700  0.68836100  0.43575400  1
  O  O15  1  0.81576300  0.31163900  0.56424600  1
  O  O16  1  0.62936300  0.56101600  0.25000000  1
  O  O17  1  0.37063700  0.43898400  0.75000000  1
  O  O18  1  0.12936300  0.93898400  0.75000000  1
  O  O19  1  0.87063700  0.06101600  0.25000000  1
