# generated using pymatgen
data_NaMoO3
_symmetry_space_group_name_H-M   'P 1'
_cell_length_a   5.42930403
_cell_length_b   5.45775645
_cell_length_c   7.71239691
_cell_angle_alpha   90.00000000
_cell_angle_beta   90.00000000
_cell_angle_gamma   90.00000000
_symmetry_Int_Tables_number   1
_chemical_formula_structural   NaMoO3
_chemical_formula_sum   'Na4 Mo4 O12'
_cell_volume   228.53234984
_cell_formula_units_Z   4
loop_
 _symmetry_equiv_pos_site_id
 _symmetry_equiv_pos_as_xyz
  1  'x, y, z'
loop_
 _atom_site_type_symbol
 _atom_site_label
 _atom_site_symmetry_multiplicity
 _atom_site_fract_x
 _atom_site_fract_y
 _atom_site_fract_z
 _atom_site_occupancy
  Mo  Mo0  1  0.49999963  0.00000000  0.00000000  1
  Mo  Mo1  1  0.00000000  0.50000033  0.00000000  1
  Mo  Mo2  1  0.49999963  0.00000000  0.49999890  1
  Mo  Mo3  1  0.00000000  0.50000033  0.49999890  1
  Na  Na4  1  0.99772088  0.01727999  0.25000010  1
  Na  Na5  1  0.50227985  0.51728032  0.25000010  1
  Na  Na6  1  0.49771941  0.48271850  0.75000030  1
  Na  Na7  1  0.00228022  0.98272066  0.75000030  1
  O  O8  1  0.71843462  0.28115765  0.02493648  1
  O  O9  1  0.78156426  0.78115798  0.02493648  1
  O  O10  1  0.04922730  0.49325396  0.25000010  1
  O  O11  1  0.45077233  0.99325429  0.25000010  1
  O  O12  1  0.71843462  0.28115765  0.47506372  1
  O  O13  1  0.78156426  0.78115798  0.47506372  1
  O  O14  1  0.21843500  0.21884267  0.52493668  1
  O  O15  1  0.28156463  0.71884300  0.52493668  1
  O  O16  1  0.54922878  0.00674636  0.75000030  1
  O  O17  1  0.95077380  0.50674485  0.75000030  1
  O  O18  1  0.21843500  0.21884267  0.97506392  1
  O  O19  1  0.28156463  0.71884300  0.97506392  1
