# generated using pymatgen
data_KAgO3
_symmetry_space_group_name_H-M   'P 1'
_cell_length_a   5.64386068
_cell_length_b   5.73482494
_cell_length_c   8.35420693
_cell_angle_alpha   90.00000000
_cell_angle_beta   90.00000000
_cell_angle_gamma   90.00000000
_symmetry_Int_Tables_number   1
_chemical_formula_structural   KAgO3
_chemical_formula_sum   'K4 Ag4 O12'
_cell_volume   270.39688126
_cell_formula_units_Z   4
loop_
 _symmetry_equiv_pos_site_id
 _symmetry_equiv_pos_as_xyz
  1  'x, y, z'
loop_
 _atom_site_type_symbol
 _atom_site_label
 _atom_site_symmetry_multiplicity
 _atom_site_fract_x
 _atom_site_fract_y
 _atom_site_fract_z
 _atom_site_occupancy
  Ag  Ag0  1  0.49999994  0.00000000  0.00000000  1
  Ag  Ag1  1  0.00000000  0.50000131  0.00000000  1
  Ag  Ag2  1  0.49999994  0.00000000  0.49999959  1
  Ag  Ag3  1  0.00000000  0.50000131  0.49999959  1
  K  K4  1  0.99418294  0.04140318  0.24999979  1
  K  K5  1  0.50581688  0.54140449  0.24999979  1
  K  K6  1  0.49418300  0.45859639  0.75000058  1
  K  K7  1  0.00581694  0.95859596  0.75000058  1
  O  O8  1  0.69732409  0.30124546  0.02018145  1
  O  O9  1  0.80267573  0.80124503  0.02018145  1
  O  O10  1  0.48126454  0.05725545  0.24999979  1
  O  O11  1  0.01873540  0.55725328  0.24999979  1
  O  O12  1  0.69732409  0.30124546  0.47981814  1
  O  O13  1  0.80267573  0.80124503  0.47981814  1
  O  O14  1  0.19732415  0.19875585  0.52018223  1
  O  O15  1  0.30267579  0.69875542  0.52018223  1
  O  O16  1  0.98126448  0.44274586  0.75000058  1
  O  O17  1  0.51873357  0.94274543  0.75000058  1
  O  O18  1  0.19732415  0.19875585  0.97981892  1
  O  O19  1  0.30267579  0.69875542  0.97981892  1
