# generated using pymatgen
data_SrInO3
_symmetry_space_group_name_H-M   'P 1'
_cell_length_a   6.06469900
_cell_length_b   6.49421900
_cell_length_c   8.83152500
_cell_angle_alpha   90.00000000
_cell_angle_beta   90.00000000
_cell_angle_gamma   90.00000000
_symmetry_Int_Tables_number   1
_chemical_formula_structural   SrInO3
_chemical_formula_sum   'Sr4 In4 O12'
_cell_volume   347.83388195
_cell_formula_units_Z   4
loop_
 _symmetry_equiv_pos_site_id
 _symmetry_equiv_pos_as_xyz
  1  'x, y, z'
loop_
 _atom_site_type_symbol
 _atom_site_label
 _atom_site_symmetry_multiplicity
 _atom_site_fract_x
 _atom_site_fract_y
 _atom_site_fract_z
 _atom_site_occupancy
  In  In0  1  0.00000000  0.50000080  0.00000000  1
  In  In1  1  0.00000000  0.50000080  0.50000014  1
  In  In2  1  0.50000026  0.00000000  0.00000000  1
  In  In3  1  0.50000026  0.00000000  0.50000014  1
  O  O4  1  0.13195725  0.45110986  0.74999960  1
  O  O5  1  0.17228246  0.18408824  0.05796648  1
  O  O6  1  0.17228246  0.18408824  0.44203366  1
  O  O7  1  0.32771780  0.68408904  0.05796648  1
  O  O8  1  0.32771780  0.68408904  0.44203366  1
  O  O9  1  0.36804301  0.95111066  0.74999960  1
  O  O10  1  0.63195750  0.04888927  0.24999946  1
  O  O11  1  0.67228272  0.31591089  0.55796662  1
  O  O12  1  0.67228272  0.31591089  0.94203381  1
  O  O13  1  0.82771806  0.81591169  0.55796662  1
  O  O14  1  0.82771806  0.81591169  0.94203381  1
  O  O15  1  0.86804149  0.54889007  0.24999946  1
  Sr  Sr16  1  0.01281157  0.95286282  0.24999946  1
  Sr  Sr17  1  0.48718869  0.45286202  0.24999946  1
  Sr  Sr18  1  0.51281183  0.54713791  0.74999960  1
  Sr  Sr19  1  0.98718843  0.04713711  0.74999960  1
