# generated using pymatgen
data_SrSbO3
_symmetry_space_group_name_H-M   'P 1'
_cell_length_a   5.82522124
_cell_length_b   5.92258791
_cell_length_c   8.29465298
_cell_angle_alpha   90.00000000
_cell_angle_beta   90.00000000
_cell_angle_gamma   90.00000000
_symmetry_Int_Tables_number   1
_chemical_formula_structural   SrSbO3
_chemical_formula_sum   'Sr4 Sb4 O12'
_cell_volume   286.16872020
_cell_formula_units_Z   4
loop_
 _symmetry_equiv_pos_site_id
 _symmetry_equiv_pos_as_xyz
  1  'x, y, z'
loop_
 _atom_site_type_symbol
 _atom_site_label
 _atom_site_symmetry_multiplicity
 _atom_site_fract_x
 _atom_site_fract_y
 _atom_site_fract_z
 _atom_site_occupancy
  O  O0  1  0.70997132  0.28867617  0.04161958  1
  O  O1  1  0.79002836  0.78867719  0.04161958  1
  O  O2  1  0.07833007  0.47657207  0.24999961  1
  O  O3  1  0.42166982  0.97657478  0.24999961  1
  O  O4  1  0.70997132  0.28867617  0.45838084  1
  O  O5  1  0.79002836  0.78867719  0.45838084  1
  O  O6  1  0.20997142  0.21132316  0.54162001  1
  O  O7  1  0.29002847  0.71132249  0.54162001  1
  O  O8  1  0.57832997  0.02342726  0.75000003  1
  O  O9  1  0.92166972  0.52342659  0.75000003  1
  O  O10  1  0.20997142  0.21132316  0.95838006  1
  O  O11  1  0.29002847  0.71132249  0.95838006  1
  Sb  Sb12  1  0.49999989  0.00000000  0.00000000  1
  Sb  Sb13  1  0.00000000  0.49999933  0.00000000  1
  Sb  Sb14  1  0.49999989  0.00000000  0.50000042  1
  Sb  Sb15  1  0.00000000  0.49999933  0.50000042  1
  Sr  Sr16  1  0.99176319  0.03817081  0.24999961  1
  Sr  Sr17  1  0.50823649  0.53817015  0.24999961  1
  Sr  Sr18  1  0.49176330  0.46183021  0.75000003  1
  Sr  Sr19  1  0.00823660  0.96182954  0.75000003  1
