# generated using pymatgen
data_SiHgO3
_symmetry_space_group_name_H-M   'P 1'
_cell_length_a   5.14442320
_cell_length_b   5.17138605
_cell_length_c   7.28581155
_cell_angle_alpha   90.00000000
_cell_angle_beta   90.00000000
_cell_angle_gamma   90.00000000
_symmetry_Int_Tables_number   1
_chemical_formula_structural   SiHgO3
_chemical_formula_sum   'Si4 Hg4 O12'
_cell_volume   193.83026131
_cell_formula_units_Z   4
loop_
 _symmetry_equiv_pos_site_id
 _symmetry_equiv_pos_as_xyz
  1  'x, y, z'
loop_
 _atom_site_type_symbol
 _atom_site_label
 _atom_site_symmetry_multiplicity
 _atom_site_fract_x
 _atom_site_fract_y
 _atom_site_fract_z
 _atom_site_occupancy
  Hg  Hg0  1  0.99902745  0.00880422  0.24999960  1
  Hg  Hg1  1  0.50097162  0.50880557  0.24999960  1
  Hg  Hg2  1  0.49902776  0.49119520  0.74999881  1
  Hg  Hg3  1  0.00097193  0.99119655  0.74999881  1
  O  O4  1  0.72688421  0.27103179  0.03302309  1
  O  O5  1  0.77311680  0.77103314  0.03302309  1
  O  O6  1  0.06370588  0.49158774  0.24999960  1
  O  O7  1  0.43629381  0.99158716  0.24999960  1
  O  O8  1  0.72688421  0.27103179  0.46697612  1
  O  O9  1  0.77311680  0.77103314  0.46697612  1
  O  O10  1  0.22688452  0.22896956  0.53302367  1
  O  O11  1  0.27311711  0.72896704  0.53302367  1
  O  O12  1  0.56370557  0.00841361  0.74999881  1
  O  O13  1  0.93629350  0.50841302  0.74999881  1
  O  O14  1  0.22688452  0.22896956  0.96697670  1
  O  O15  1  0.27311711  0.72896704  0.96697670  1
  Si  Si16  1  0.49999969  0.00000000  0.00000000  1
  Si  Si17  1  0.00000000  0.50000135  0.00000000  1
  Si  Si18  1  0.49999969  0.00000000  0.50000058  1
  Si  Si19  1  0.00000000  0.50000135  0.50000058  1
