# generated using pymatgen
data_SmGeO3
_symmetry_space_group_name_H-M   'P 1'
_cell_length_a   5.44240072
_cell_length_b   5.82054303
_cell_length_c   7.87390148
_cell_angle_alpha   90.00000000
_cell_angle_beta   90.00000000
_cell_angle_gamma   90.00000000
_symmetry_Int_Tables_number   1
_chemical_formula_structural   SmGeO3
_chemical_formula_sum   'Sm4 Ge4 O12'
_cell_volume   249.42730605
_cell_formula_units_Z   4
loop_
 _symmetry_equiv_pos_site_id
 _symmetry_equiv_pos_as_xyz
  1  'x, y, z'
loop_
 _atom_site_type_symbol
 _atom_site_label
 _atom_site_symmetry_multiplicity
 _atom_site_fract_x
 _atom_site_fract_y
 _atom_site_fract_z
 _atom_site_occupancy
  Ge  Ge0  1  0.49999993  0.00000000  0.00000000  1
  Ge  Ge1  1  0.00000000  0.49999974  0.00000000  1
  Ge  Ge2  1  0.49999993  0.00000000  0.49999991  1
  Ge  Ge3  1  0.00000000  0.49999974  0.49999991  1
  O  O4  1  0.69431675  0.30347168  0.05750516  1
  O  O5  1  0.80568121  0.80347142  0.05750516  1
  O  O6  1  0.11329008  0.46039175  0.24999932  1
  O  O7  1  0.38671169  0.96039149  0.24999932  1
  O  O8  1  0.69431675  0.30347168  0.44249474  1
  O  O9  1  0.80568121  0.80347142  0.44249474  1
  O  O10  1  0.19431866  0.19652977  0.55750380  1
  O  O11  1  0.30568311  0.69652951  0.55750380  1
  O  O12  1  0.61329001  0.03960799  0.74999922  1
  O  O13  1  0.88670979  0.53960945  0.74999922  1
  O  O14  1  0.19431866  0.19652977  0.94249592  1
  O  O15  1  0.30568311  0.69652951  0.94249592  1
  Sm  Sm16  1  0.97913224  0.06909493  0.24999932  1
  Sm  Sm17  1  0.52086573  0.56909467  0.24999932  1
  Sm  Sm18  1  0.47913230  0.43090481  0.74999922  1
  Sm  Sm19  1  0.02086763  0.93090455  0.74999922  1
