# generated using pymatgen
data_BaErO3
_symmetry_space_group_name_H-M   'P 1'
_cell_length_a   6.15915427
_cell_length_b   6.14468932
_cell_length_c   8.68920983
_cell_angle_alpha   90.00000000
_cell_angle_beta   90.00000000
_cell_angle_gamma   90.00000000
_symmetry_Int_Tables_number   1
_chemical_formula_structural   BaErO3
_chemical_formula_sum   'Ba4 Er4 O12'
_cell_volume   328.85261264
_cell_formula_units_Z   4
loop_
 _symmetry_equiv_pos_site_id
 _symmetry_equiv_pos_as_xyz
  1  'x, y, z'
loop_
 _atom_site_type_symbol
 _atom_site_label
 _atom_site_symmetry_multiplicity
 _atom_site_fract_x
 _atom_site_fract_y
 _atom_site_fract_z
 _atom_site_occupancy
  Ba  Ba0  1  0.99558799  0.02137130  0.24999972  1
  Ba  Ba1  1  0.50441341  0.52137054  0.24999972  1
  Ba  Ba2  1  0.49558590  0.47862957  0.74999915  1
  Ba  Ba3  1  0.00441294  0.97862881  0.74999915  1
  Er  Er4  1  0.50000047  0.00000000  0.00000000  1
  Er  Er5  1  0.00000000  0.49999924  0.00000000  1
  Er  Er6  1  0.50000047  0.00000000  0.50000059  1
  Er  Er7  1  0.00000000  0.49999924  0.50000059  1
  O  O8  1  0.72134254  0.27803684  0.03433454  1
  O  O9  1  0.77865561  0.77803608  0.03433454  1
  O  O10  1  0.06443904  0.48360785  0.24999972  1
  O  O11  1  0.43555980  0.98360872  0.24999972  1
  O  O12  1  0.72134254  0.27803684  0.46566490  1
  O  O13  1  0.77865561  0.77803608  0.46566490  1
  O  O14  1  0.22134370  0.22196240  0.53433512  1
  O  O15  1  0.27865676  0.72196164  0.53433512  1
  O  O16  1  0.56443951  0.01639139  0.74999915  1
  O  O17  1  0.93556026  0.51639063  0.74999915  1
  O  O18  1  0.22134370  0.22196240  0.96566548  1
  O  O19  1  0.27865676  0.72196164  0.96566548  1
