# generated using pymatgen
data_ZnSbO3
_symmetry_space_group_name_H-M   'P 1'
_cell_length_a   8.06373900
_cell_length_b   5.49053200
_cell_length_c   5.55979010
_cell_angle_alpha   88.33332232
_cell_angle_beta   90.00000000
_cell_angle_gamma   90.00000000
_symmetry_Int_Tables_number   1
_chemical_formula_structural   ZnSbO3
_chemical_formula_sum   'Zn4 Sb4 O12'
_cell_volume   246.05121608
_cell_formula_units_Z   4
loop_
 _symmetry_equiv_pos_site_id
 _symmetry_equiv_pos_as_xyz
  1  'x, y, z'
loop_
 _atom_site_type_symbol
 _atom_site_label
 _atom_site_symmetry_multiplicity
 _atom_site_fract_x
 _atom_site_fract_y
 _atom_site_fract_z
 _atom_site_occupancy
  Zn  Zn0  1  0.75000000  0.52337300  0.49480900  1
  Zn  Zn1  1  0.25000000  0.47662700  0.50519100  1
  Zn  Zn2  1  0.75000000  0.01362400  0.02808400  1
  Zn  Zn3  1  0.25000000  0.98637600  0.97191600  1
  Sb  Sb4  1  0.50000000  0.00000000  0.50000000  1
  Sb  Sb5  1  0.00000000  0.00000000  0.50000000  1
  Sb  Sb6  1  0.50000000  0.50000000  0.00000000  1
  Sb  Sb7  1  0.00000000  0.50000000  0.00000000  1
  O  O8  1  0.42948500  0.65035800  0.30985300  1
  O  O9  1  0.06986000  0.17933200  0.13830300  1
  O  O10  1  0.92948500  0.34964200  0.69014700  1
  O  O11  1  0.56986000  0.82066800  0.86169700  1
  O  O12  1  0.43014000  0.17933200  0.13830300  1
  O  O13  1  0.93014000  0.82066800  0.86169700  1
  O  O14  1  0.25000000  0.60528900  0.86542300  1
  O  O15  1  0.07051500  0.65035800  0.30985300  1
  O  O16  1  0.75000000  0.87485400  0.37119300  1
  O  O17  1  0.57051500  0.34964200  0.69014700  1
  O  O18  1  0.75000000  0.39471100  0.13457700  1
  O  O19  1  0.25000000  0.12514600  0.62880700  1
