# generated using pymatgen
data_EuHfO3
_symmetry_space_group_name_H-M   'P 1'
_cell_length_a   5.62313216
_cell_length_b   5.72729822
_cell_length_c   8.00974087
_cell_angle_alpha   90.00000000
_cell_angle_beta   90.00000000
_cell_angle_gamma   90.00000000
_symmetry_Int_Tables_number   1
_chemical_formula_structural   EuHfO3
_chemical_formula_sum   'Eu4 Hf4 O12'
_cell_volume   257.95654626
_cell_formula_units_Z   4
loop_
 _symmetry_equiv_pos_site_id
 _symmetry_equiv_pos_as_xyz
  1  'x, y, z'
loop_
 _atom_site_type_symbol
 _atom_site_label
 _atom_site_symmetry_multiplicity
 _atom_site_fract_x
 _atom_site_fract_y
 _atom_site_fract_z
 _atom_site_occupancy
  Eu  Eu0  1  0.98952858  0.04241616  0.24999935  1
  Eu  Eu1  1  0.51047173  0.54241457  0.24999935  1
  Eu  Eu2  1  0.48952789  0.45758400  0.75000054  1
  Eu  Eu3  1  0.01047281  0.95758415  0.75000054  1
  Hf  Hf4  1  0.50000070  0.00000000  0.00000000  1
  Hf  Hf5  1  0.00000000  0.50000016  0.00000000  1
  Hf  Hf6  1  0.50000070  0.00000000  0.49999995  1
  Hf  Hf7  1  0.00000000  0.50000016  0.49999995  1
  O  O8  1  0.70593753  0.29326219  0.04700651  1
  O  O9  1  0.79406279  0.79326234  0.04700651  1
  O  O10  1  0.08904824  0.47366837  0.24999935  1
  O  O11  1  0.41095068  0.97366852  0.24999935  1
  O  O12  1  0.70593753  0.29326219  0.45299343  1
  O  O13  1  0.79406279  0.79326234  0.45299343  1
  O  O14  1  0.20593861  0.20673797  0.54700646  1
  O  O15  1  0.29406209  0.70673812  0.54700646  1
  O  O16  1  0.58904893  0.02633179  0.75000054  1
  O  O17  1  0.91095138  0.52633194  0.75000054  1
  O  O18  1  0.20593861  0.20673797  0.95299338  1
  O  O19  1  0.29406209  0.70673812  0.95299338  1
