# generated using pymatgen
data_ScGaO3
_symmetry_space_group_name_H-M   'P 1'
_cell_length_a   5.06465400
_cell_length_b   5.38396700
_cell_length_c   7.58976000
_cell_angle_alpha   90.00000000
_cell_angle_beta   90.00000000
_cell_angle_gamma   90.00000000
_symmetry_Int_Tables_number   1
_chemical_formula_structural   ScGaO3
_chemical_formula_sum   'Sc4 Ga4 O12'
_cell_volume   206.95704442
_cell_formula_units_Z   4
loop_
 _symmetry_equiv_pos_site_id
 _symmetry_equiv_pos_as_xyz
  1  'x, y, z'
loop_
 _atom_site_type_symbol
 _atom_site_label
 _atom_site_symmetry_multiplicity
 _atom_site_fract_x
 _atom_site_fract_y
 _atom_site_fract_z
 _atom_site_occupancy
  Sc  Sc0  1  0.02415800  0.93043200  0.75000000  1
  Sc  Sc1  1  0.47584200  0.43043200  0.75000000  1
  Sc  Sc2  1  0.52415800  0.56956800  0.25000000  1
  Sc  Sc3  1  0.97584200  0.06956800  0.25000000  1
  Ga  Ga4  1  0.00000000  0.50000000  0.00000000  1
  Ga  Ga5  1  0.00000000  0.50000000  0.50000000  1
  Ga  Ga6  1  0.50000000  0.00000000  0.00000000  1
  Ga  Ga7  1  0.50000000  0.00000000  0.50000000  1
  O  O8  1  0.14106200  0.43750800  0.25000000  1
  O  O9  1  0.18591700  0.18899200  0.57163800  1
  O  O10  1  0.18591700  0.18899200  0.92836200  1
  O  O11  1  0.31408300  0.68899200  0.57163800  1
  O  O12  1  0.31408300  0.68899200  0.92836200  1
  O  O13  1  0.35893800  0.93750800  0.25000000  1
  O  O14  1  0.64106200  0.06249200  0.75000000  1
  O  O15  1  0.68591700  0.31100800  0.07163800  1
  O  O16  1  0.68591700  0.31100800  0.42836200  1
  O  O17  1  0.81408300  0.81100800  0.07163800  1
  O  O18  1  0.81408300  0.81100800  0.42836200  1
  O  O19  1  0.85893800  0.56249200  0.75000000  1
