# generated using pymatgen
data_AlAgO3
_symmetry_space_group_name_H-M   'P 1'
_cell_length_a   5.09384463
_cell_length_b   5.32311145
_cell_length_c   7.30047311
_cell_angle_alpha   90.00000000
_cell_angle_beta   90.00000000
_cell_angle_gamma   90.00000000
_symmetry_Int_Tables_number   1
_chemical_formula_structural   AlAgO3
_chemical_formula_sum   'Al4 Ag4 O12'
_cell_volume   197.95307814
_cell_formula_units_Z   4
loop_
 _symmetry_equiv_pos_site_id
 _symmetry_equiv_pos_as_xyz
  1  'x, y, z'
loop_
 _atom_site_type_symbol
 _atom_site_label
 _atom_site_symmetry_multiplicity
 _atom_site_fract_x
 _atom_site_fract_y
 _atom_site_fract_z
 _atom_site_occupancy
  Ag  Ag0  1  0.99007731  0.04514089  0.25000024  1
  Ag  Ag1  1  0.50992329  0.54514170  0.25000024  1
  Ag  Ag2  1  0.49007777  0.45485991  0.74999934  1
  Ag  Ag3  1  0.00992178  0.95485884  0.74999934  1
  Al  Al4  1  0.49999955  0.00000000  0.00000000  1
  Al  Al5  1  0.00000000  0.50000080  0.00000000  1
  Al  Al6  1  0.49999955  0.00000000  0.50000047  1
  Al  Al7  1  0.00000000  0.50000080  0.50000047  1
  O  O8  1  0.69531175  0.31825372  0.04261916  1
  O  O9  1  0.80468885  0.81825452  0.04261916  1
  O  O10  1  0.08613533  0.46405002  0.25000024  1
  O  O11  1  0.41386618  0.96404895  0.25000024  1
  O  O12  1  0.69531175  0.31825372  0.45737995  1
  O  O13  1  0.80468885  0.81825452  0.45737995  1
  O  O14  1  0.19531220  0.18174521  0.54261963  1
  O  O15  1  0.30468931  0.68174601  0.54261963  1
  O  O16  1  0.58613488  0.03595078  0.74999934  1
  O  O17  1  0.91386572  0.53594970  0.74999934  1
  O  O18  1  0.19531220  0.18174521  0.95738042  1
  O  O19  1  0.30468931  0.68174601  0.95738042  1
