# generated using pymatgen
data_AlGaO3
_symmetry_space_group_name_H-M   'P 1'
_cell_length_a   4.88923100
_cell_length_b   5.00952900
_cell_length_c   7.44801800
_cell_angle_alpha   90.00000000
_cell_angle_beta   90.00000000
_cell_angle_gamma   90.00000000
_symmetry_Int_Tables_number   1
_chemical_formula_structural   AlGaO3
_chemical_formula_sum   'Al4 Ga4 O12'
_cell_volume   182.42240177
_cell_formula_units_Z   4
loop_
 _symmetry_equiv_pos_site_id
 _symmetry_equiv_pos_as_xyz
  1  'x, y, z'
loop_
 _atom_site_type_symbol
 _atom_site_label
 _atom_site_symmetry_multiplicity
 _atom_site_fract_x
 _atom_site_fract_y
 _atom_site_fract_z
 _atom_site_occupancy
  Al  Al0  1  0.00000000  0.50000000  0.00000000  1
  Al  Al1  1  0.00000000  0.50000000  0.50000000  1
  Al  Al2  1  0.50000000  0.00000000  0.00000000  1
  Al  Al3  1  0.50000000  0.00000000  0.50000000  1
  Ga  Ga4  1  0.01401500  0.95704300  0.75000000  1
  Ga  Ga5  1  0.48598500  0.45704300  0.75000000  1
  Ga  Ga6  1  0.51401500  0.54295700  0.25000000  1
  Ga  Ga7  1  0.98598500  0.04295700  0.25000000  1
  O  O8  1  0.13206100  0.42015200  0.25000000  1
  O  O9  1  0.18100700  0.18548900  0.57144800  1
  O  O10  1  0.18100700  0.18548900  0.92855200  1
  O  O11  1  0.31899300  0.68548900  0.57144800  1
  O  O12  1  0.31899300  0.68548900  0.92855200  1
  O  O13  1  0.36793900  0.92015200  0.25000000  1
  O  O14  1  0.63206100  0.07984800  0.75000000  1
  O  O15  1  0.68100700  0.31451100  0.07144800  1
  O  O16  1  0.68100700  0.31451100  0.42855200  1
  O  O17  1  0.81899300  0.81451100  0.07144800  1
  O  O18  1  0.81899300  0.81451100  0.42855200  1
  O  O19  1  0.86793900  0.57984800  0.75000000  1
