# generated using pymatgen
data_CsTlCl3
_symmetry_space_group_name_H-M   'P 1'
_cell_length_a   5.57982973
_cell_length_b   5.57995028
_cell_length_c   5.58007987
_cell_angle_alpha   89.99305154
_cell_angle_beta   89.99737228
_cell_angle_gamma   89.98461463
_symmetry_Int_Tables_number   1
_chemical_formula_structural   CsTlCl3
_chemical_formula_sum   'Cs1 Tl1 Cl3'
_cell_volume   173.73674150
_cell_formula_units_Z   1
loop_
 _symmetry_equiv_pos_site_id
 _symmetry_equiv_pos_as_xyz
  1  'x, y, z'
loop_
 _atom_site_type_symbol
 _atom_site_label
 _atom_site_symmetry_multiplicity
 _atom_site_fract_x
 _atom_site_fract_y
 _atom_site_fract_z
 _atom_site_occupancy
  Cs  Cs0  1  0.00104254  0.00550006  0.00188813  1
  Tl  Tl1  1  0.50029315  0.51333995  0.50290811  1
  Cl  Cl2  1  0.00002690  0.51506435  0.50549087  1
  Cl  Cl3  1  0.49686719  0.01361869  0.49722963  1
  Cl  Cl4  1  0.50177322  0.51247496  0.00248326  1
