# generated using pymatgen
data_RuPbO3
_symmetry_space_group_name_H-M   'P 1'
_cell_length_a   5.53147192
_cell_length_b   5.63286676
_cell_length_c   7.87784884
_cell_angle_alpha   90.00000000
_cell_angle_beta   90.00000000
_cell_angle_gamma   90.00000000
_symmetry_Int_Tables_number   1
_chemical_formula_structural   RuPbO3
_chemical_formula_sum   'Ru4 Pb4 O12'
_cell_volume   245.45836338
_cell_formula_units_Z   4
loop_
 _symmetry_equiv_pos_site_id
 _symmetry_equiv_pos_as_xyz
  1  'x, y, z'
loop_
 _atom_site_type_symbol
 _atom_site_label
 _atom_site_symmetry_multiplicity
 _atom_site_fract_x
 _atom_site_fract_y
 _atom_site_fract_z
 _atom_site_occupancy
  O  O0  1  0.71012021  0.28825287  0.03760290  1
  O  O1  1  0.78988017  0.78825404  0.03760290  1
  O  O2  1  0.07378325  0.48156119  0.24999972  1
  O  O3  1  0.42621567  0.98156059  0.24999972  1
  O  O4  1  0.71012021  0.28825287  0.46239780  1
  O  O5  1  0.78988017  0.78825404  0.46239780  1
  O  O6  1  0.21011948  0.21174653  0.53760234  1
  O  O7  1  0.28988125  0.71174593  0.53760234  1
  O  O8  1  0.57378398  0.01843999  0.75000043  1
  O  O9  1  0.92621640  0.51843939  0.75000043  1
  O  O10  1  0.21011948  0.21174653  0.96239724  1
  O  O11  1  0.28988125  0.71174593  0.96239724  1
  Pb  Pb12  1  0.99367222  0.03320157  0.24999972  1
  Pb  Pb13  1  0.50632816  0.53320097  0.24999972  1
  Pb  Pb14  1  0.49367149  0.46679783  0.75000043  1
  Pb  Pb15  1  0.00632924  0.96679901  0.75000043  1
  Ru  Ru16  1  0.50000073  0.00000000  0.00000000  1
  Ru  Ru17  1  0.00000000  0.49999940  0.00000000  1
  Ru  Ru18  1  0.50000073  0.00000000  0.49999944  1
  Ru  Ru19  1  0.00000000  0.49999940  0.49999944  1
