# generated using pymatgen
data_CuBiO3
_symmetry_space_group_name_H-M   'P 1'
_cell_length_a   5.55038446
_cell_length_b   5.56084947
_cell_length_c   8.00983006
_cell_angle_alpha   90.00000000
_cell_angle_beta   90.00000000
_cell_angle_gamma   90.00000000
_symmetry_Int_Tables_number   1
_chemical_formula_structural   CuBiO3
_chemical_formula_sum   'Cu4 Bi4 O12'
_cell_volume   247.22222335
_cell_formula_units_Z   4
loop_
 _symmetry_equiv_pos_site_id
 _symmetry_equiv_pos_as_xyz
  1  'x, y, z'
loop_
 _atom_site_type_symbol
 _atom_site_label
 _atom_site_symmetry_multiplicity
 _atom_site_fract_x
 _atom_site_fract_y
 _atom_site_fract_z
 _atom_site_occupancy
  Bi  Bi0  1  0.49999960  0.00000000  0.00000000  1
  Bi  Bi1  1  0.00000000  0.49999915  0.00000000  1
  Bi  Bi2  1  0.49999960  0.00000000  0.50000062  1
  Bi  Bi3  1  0.00000000  0.49999915  0.50000062  1
  Cu  Cu4  1  0.01616284  0.01673665  0.25000031  1
  Cu  Cu5  1  0.48383856  0.51673580  0.25000031  1
  Cu  Cu6  1  0.51616244  0.48326430  0.74999968  1
  Cu  Cu7  1  0.98383716  0.98326344  0.74999968  1
  O  O8  1  0.65810937  0.33900396  0.07630998  1
  O  O9  1  0.84189123  0.83900491  0.07630998  1
  O  O10  1  0.13230615  0.39387867  0.25000031  1
  O  O11  1  0.36769345  0.89387962  0.25000031  1
  O  O12  1  0.65810937  0.33900396  0.42368939  1
  O  O13  1  0.84189123  0.83900491  0.42368939  1
  O  O14  1  0.15810977  0.16099519  0.57631060  1
  O  O15  1  0.34189163  0.66099613  0.57631060  1
  O  O16  1  0.63230575  0.10612048  0.74999968  1
  O  O17  1  0.86769305  0.60612142  0.74999968  1
  O  O18  1  0.15810977  0.16099519  0.92369001  1
  O  O19  1  0.34189163  0.66099613  0.92369001  1
