# generated using pymatgen
data_EuPdO3
_symmetry_space_group_name_H-M   'P 1'
_cell_length_a   5.41555746
_cell_length_b   5.65945726
_cell_length_c   7.74723273
_cell_angle_alpha   90.00000000
_cell_angle_beta   90.00000000
_cell_angle_gamma   90.00000000
_symmetry_Int_Tables_number   1
_chemical_formula_structural   EuPdO3
_chemical_formula_sum   'Eu4 Pd4 O12'
_cell_volume   237.44583448
_cell_formula_units_Z   4
loop_
 _symmetry_equiv_pos_site_id
 _symmetry_equiv_pos_as_xyz
  1  'x, y, z'
loop_
 _atom_site_type_symbol
 _atom_site_label
 _atom_site_symmetry_multiplicity
 _atom_site_fract_x
 _atom_site_fract_y
 _atom_site_fract_z
 _atom_site_occupancy
  Eu  Eu0  1  0.97985296  0.06543030  0.25000023  1
  Eu  Eu1  1  0.52014774  0.56542878  0.25000023  1
  Eu  Eu2  1  0.47985272  0.43456994  0.75000070  1
  Eu  Eu3  1  0.02014751  0.93457018  0.75000070  1
  O  O4  1  0.69309578  0.30095819  0.04958028  1
  O  O5  1  0.80690493  0.80095843  0.04958028  1
  O  O6  1  0.10084834  0.47212831  0.25000023  1
  O  O7  1  0.39915189  0.97212855  0.25000023  1
  O  O8  1  0.69309578  0.30095819  0.45042019  1
  O  O9  1  0.80690493  0.80095843  0.45042019  1
  O  O10  1  0.19309554  0.19904205  0.54957946  1
  O  O11  1  0.30690469  0.69904053  0.54957946  1
  O  O12  1  0.60084673  0.02787193  0.75000070  1
  O  O13  1  0.89915212  0.52787041  0.75000070  1
  O  O14  1  0.19309554  0.19904205  0.95041936  1
  O  O15  1  0.30690469  0.69904053  0.95041936  1
  Pd  Pd16  1  0.50000023  0.00000000  0.00000000  1
  Pd  Pd17  1  0.00000000  0.50000024  0.00000000  1
  Pd  Pd18  1  0.50000023  0.00000000  0.50000047  1
  Pd  Pd19  1  0.00000000  0.50000024  0.50000047  1
