# generated using pymatgen
data_HgRuO3
_symmetry_space_group_name_H-M   'P 1'
_cell_length_a   5.50654697
_cell_length_b   5.52566512
_cell_length_c   7.74737092
_cell_angle_alpha   90.00000000
_cell_angle_beta   90.00000000
_cell_angle_gamma   90.00000000
_symmetry_Int_Tables_number   1
_chemical_formula_structural   HgRuO3
_chemical_formula_sum   'Hg4 Ru4 O12'
_cell_volume   235.73184660
_cell_formula_units_Z   4
loop_
 _symmetry_equiv_pos_site_id
 _symmetry_equiv_pos_as_xyz
  1  'x, y, z'
loop_
 _atom_site_type_symbol
 _atom_site_label
 _atom_site_symmetry_multiplicity
 _atom_site_fract_x
 _atom_site_fract_y
 _atom_site_fract_z
 _atom_site_occupancy
  Hg  Hg0  1  0.99285633  0.02012065  0.24999965  1
  Hg  Hg1  1  0.50714359  0.52012019  0.24999965  1
  Hg  Hg2  1  0.49285696  0.47987888  0.75000023  1
  Hg  Hg3  1  0.00714422  0.97988023  0.75000023  1
  O  O4  1  0.72834392  0.27158360  0.05670569  1
  O  O5  1  0.77165600  0.77158494  0.05670569  1
  O  O6  1  0.10720511  0.49216338  0.24999965  1
  O  O7  1  0.39279425  0.99216472  0.24999965  1
  O  O8  1  0.72834392  0.27158360  0.44329490  1
  O  O9  1  0.77165600  0.77158494  0.44329490  1
  O  O10  1  0.22834455  0.22841594  0.55670498  1
  O  O11  1  0.27165482  0.72841548  0.55670498  1
  O  O12  1  0.60720630  0.00783616  0.75000023  1
  O  O13  1  0.89279362  0.50783570  0.75000023  1
  O  O14  1  0.22834455  0.22841594  0.94329419  1
  O  O15  1  0.27165482  0.72841548  0.94329419  1
  Ru  Ru16  1  0.49999937  0.00000000  0.00000000  1
  Ru  Ru17  1  0.00000000  0.49999954  0.00000000  1
  Ru  Ru18  1  0.49999937  0.00000000  0.50000059  1
  Ru  Ru19  1  0.00000000  0.49999954  0.50000059  1
