# generated using pymatgen
data_PrBiO3
_symmetry_space_group_name_H-M   'P 1'
_cell_length_a   4.52562800
_cell_length_b   4.52562800
_cell_length_c   4.52562800
_cell_angle_alpha   90.00000000
_cell_angle_beta   90.00000000
_cell_angle_gamma   90.00000000
_symmetry_Int_Tables_number   1
_chemical_formula_structural   PrBiO3
_chemical_formula_sum   'Pr1 Bi1 O3'
_cell_volume   92.69078456
_cell_formula_units_Z   1
loop_
 _symmetry_equiv_pos_site_id
 _symmetry_equiv_pos_as_xyz
  1  'x, y, z'
loop_
 _atom_site_type_symbol
 _atom_site_label
 _atom_site_symmetry_multiplicity
 _atom_site_fract_x
 _atom_site_fract_y
 _atom_site_fract_z
 _atom_site_occupancy
  Bi  Bi0  1  0.00000000  0.00000000  0.00000000  1
  O  O1  1  0.49999912  0.49999912  0.00000000  1
  O  O2  1  0.49999912  0.00000000  0.49999912  1
  O  O3  1  0.00000000  0.49999912  0.49999912  1
  Pr  Pr4  1  0.49999912  0.49999912  0.49999912  1
