# generated using pymatgen
data_CeLuO3
_symmetry_space_group_name_H-M   'P 1'
_cell_length_a   5.77030300
_cell_length_b   5.98980200
_cell_length_c   8.34453800
_cell_angle_alpha   90.00000000
_cell_angle_beta   90.00000000
_cell_angle_gamma   90.00000000
_symmetry_Int_Tables_number   1
_chemical_formula_structural   CeLuO3
_chemical_formula_sum   'Ce4 Lu4 O12'
_cell_volume   288.41203700
_cell_formula_units_Z   4
loop_
 _symmetry_equiv_pos_site_id
 _symmetry_equiv_pos_as_xyz
  1  'x, y, z'
loop_
 _atom_site_type_symbol
 _atom_site_label
 _atom_site_symmetry_multiplicity
 _atom_site_fract_x
 _atom_site_fract_y
 _atom_site_fract_z
 _atom_site_occupancy
  Ce  Ce0  1  0.01310500  0.44526400  0.25000000  1
  Ce  Ce1  1  0.98689500  0.55473600  0.75000000  1
  Ce  Ce2  1  0.51310500  0.05473600  0.75000000  1
  Ce  Ce3  1  0.48689500  0.94526400  0.25000000  1
  Lu  Lu4  1  0.00000000  0.00000000  0.00000000  1
  Lu  Lu5  1  0.50000000  0.50000000  0.00000000  1
  Lu  Lu6  1  0.00000000  0.00000000  0.50000000  1
  Lu  Lu7  1  0.50000000  0.50000000  0.50000000  1
  O  O8  1  0.31286100  0.18906500  0.06467300  1
  O  O9  1  0.68713900  0.81093500  0.93532700  1
  O  O10  1  0.81286100  0.31093500  0.93532700  1
  O  O11  1  0.68713900  0.81093500  0.56467300  1
  O  O12  1  0.18713900  0.68906500  0.06467300  1
  O  O13  1  0.31286100  0.18906500  0.43532700  1
  O  O14  1  0.18713900  0.68906500  0.43532700  1
  O  O15  1  0.81286100  0.31093500  0.56467300  1
  O  O16  1  0.62453800  0.55202900  0.25000000  1
  O  O17  1  0.37546200  0.44797100  0.75000000  1
  O  O18  1  0.12453800  0.94797100  0.75000000  1
  O  O19  1  0.87546200  0.05202900  0.25000000  1
