# generated using pymatgen
data_CsTmI3
_symmetry_space_group_name_H-M   'P 1'
_cell_length_a   8.32717100
_cell_length_b   8.70221100
_cell_length_c   12.14529800
_cell_angle_alpha   90.00000000
_cell_angle_beta   90.00000000
_cell_angle_gamma   90.00000000
_symmetry_Int_Tables_number   1
_chemical_formula_structural   CsTmI3
_chemical_formula_sum   'Cs4 Tm4 I12'
_cell_volume   880.10657928
_cell_formula_units_Z   4
loop_
 _symmetry_equiv_pos_site_id
 _symmetry_equiv_pos_as_xyz
  1  'x, y, z'
loop_
 _atom_site_type_symbol
 _atom_site_label
 _atom_site_symmetry_multiplicity
 _atom_site_fract_x
 _atom_site_fract_y
 _atom_site_fract_z
 _atom_site_occupancy
  Cs  Cs0  1  0.02948400  0.43395000  0.25000000  1
  Cs  Cs1  1  0.97051600  0.56605000  0.75000000  1
  Cs  Cs2  1  0.52948400  0.06605000  0.75000000  1
  Cs  Cs3  1  0.47051600  0.93395000  0.25000000  1
  Tm  Tm4  1  0.00000000  0.00000000  0.00000000  1
  Tm  Tm5  1  0.50000000  0.50000000  0.00000000  1
  Tm  Tm6  1  0.00000000  0.00000000  0.50000000  1
  Tm  Tm7  1  0.50000000  0.50000000  0.50000000  1
  I  I8  1  0.28563400  0.21729500  0.02535200  1
  I  I9  1  0.71436600  0.78270500  0.97464800  1
  I  I10  1  0.78563400  0.28270500  0.97464800  1
  I  I11  1  0.71436600  0.78270500  0.52535200  1
  I  I12  1  0.21436600  0.71729500  0.02535200  1
  I  I13  1  0.28563400  0.21729500  0.47464800  1
  I  I14  1  0.21436600  0.71729500  0.47464800  1
  I  I15  1  0.78563400  0.28270500  0.52535200  1
  I  I16  1  0.55997700  0.49812900  0.25000000  1
  I  I17  1  0.44002300  0.50187100  0.75000000  1
  I  I18  1  0.05997700  0.00187100  0.75000000  1
  I  I19  1  0.94002300  0.99812900  0.25000000  1
