# generated using pymatgen
data_CaScO3
_symmetry_space_group_name_H-M   'P 1'
_cell_length_a   5.62389344
_cell_length_b   5.83234758
_cell_length_c   7.65187411
_cell_angle_alpha   90.00000000
_cell_angle_beta   90.00000000
_cell_angle_gamma   90.00000000
_symmetry_Int_Tables_number   1
_chemical_formula_structural   CaScO3
_chemical_formula_sum   'Ca4 Sc4 O12'
_cell_volume   250.98530639
_cell_formula_units_Z   4
loop_
 _symmetry_equiv_pos_site_id
 _symmetry_equiv_pos_as_xyz
  1  'x, y, z'
loop_
 _atom_site_type_symbol
 _atom_site_label
 _atom_site_symmetry_multiplicity
 _atom_site_fract_x
 _atom_site_fract_y
 _atom_site_fract_z
 _atom_site_occupancy
  Ca  Ca0  1  0.98263775  0.05840530  0.25000019  1
  Ca  Ca1  1  0.51736400  0.55840636  0.25000019  1
  Ca  Ca2  1  0.48263539  0.44159577  0.75000058  1
  Ca  Ca3  1  0.01736519  0.94159512  0.75000058  1
  O  O4  1  0.70727158  0.28763889  0.06718746  1
  O  O5  1  0.79272661  0.78763996  0.06718746  1
  O  O6  1  0.12590566  0.44805972  0.25000019  1
  O  O7  1  0.37409315  0.94805907  0.25000019  1
  O  O8  1  0.70727158  0.28763889  0.43281292  1
  O  O9  1  0.79272661  0.78763996  0.43281292  1
  O  O10  1  0.20727100  0.21236046  0.56718654  1
  O  O11  1  0.29272781  0.71235981  0.56718654  1
  O  O12  1  0.62590446  0.05193963  0.75000058  1
  O  O13  1  0.87409551  0.55194070  0.75000058  1
  O  O14  1  0.20727100  0.21236046  0.93281200  1
  O  O15  1  0.29272781  0.71235981  0.93281200  1
  Sc  Sc16  1  0.49999881  0.00000000  0.00000000  1
  Sc  Sc17  1  0.00000000  0.50000107  0.00000000  1
  Sc  Sc18  1  0.49999881  0.00000000  0.49999908  1
  Sc  Sc19  1  0.00000000  0.50000107  0.49999908  1
