# generated using pymatgen
data_ErInO3
_symmetry_space_group_name_H-M   'P 1'
_cell_length_a   5.52122600
_cell_length_b   5.84036300
_cell_length_c   8.17680400
_cell_angle_alpha   90.00000000
_cell_angle_beta   90.00000000
_cell_angle_gamma   90.00000000
_symmetry_Int_Tables_number   1
_chemical_formula_structural   ErInO3
_chemical_formula_sum   'Er4 In4 O12'
_cell_volume   263.66892779
_cell_formula_units_Z   4
loop_
 _symmetry_equiv_pos_site_id
 _symmetry_equiv_pos_as_xyz
  1  'x, y, z'
loop_
 _atom_site_type_symbol
 _atom_site_label
 _atom_site_symmetry_multiplicity
 _atom_site_fract_x
 _atom_site_fract_y
 _atom_site_fract_z
 _atom_site_occupancy
  Er  Er0  1  0.01791600  0.93732000  0.75000000  1
  Er  Er1  1  0.48208400  0.43732000  0.75000000  1
  Er  Er2  1  0.51791600  0.56268000  0.25000000  1
  Er  Er3  1  0.98208400  0.06268000  0.25000000  1
  In  In4  1  0.00000000  0.50000000  0.00000000  1
  In  In5  1  0.00000000  0.50000000  0.50000000  1
  In  In6  1  0.50000000  0.00000000  0.00000000  1
  In  In7  1  0.50000000  0.00000000  0.50000000  1
  O  O8  1  0.14814500  0.42331500  0.25000000  1
  O  O9  1  0.17978700  0.18348700  0.57515800  1
  O  O10  1  0.17978700  0.18348700  0.92484200  1
  O  O11  1  0.32021300  0.68348700  0.57515800  1
  O  O12  1  0.32021300  0.68348700  0.92484200  1
  O  O13  1  0.35185500  0.92331500  0.25000000  1
  O  O14  1  0.64814500  0.07668500  0.75000000  1
  O  O15  1  0.67978700  0.31651300  0.07515800  1
  O  O16  1  0.67978700  0.31651300  0.42484200  1
  O  O17  1  0.82021300  0.81651300  0.07515800  1
  O  O18  1  0.82021300  0.81651300  0.42484200  1
  O  O19  1  0.85185500  0.57668500  0.75000000  1
