# generated using pymatgen
data_ZnBiO3
_symmetry_space_group_name_H-M   'P 1'
_cell_length_a   5.38499009
_cell_length_b   5.72138942
_cell_length_c   7.86673570
_cell_angle_alpha   90.00000000
_cell_angle_beta   90.00000000
_cell_angle_gamma   90.00000000
_symmetry_Int_Tables_number   1
_chemical_formula_structural   ZnBiO3
_chemical_formula_sum   'Zn4 Bi4 O12'
_cell_volume   242.37117940
_cell_formula_units_Z   4
loop_
 _symmetry_equiv_pos_site_id
 _symmetry_equiv_pos_as_xyz
  1  'x, y, z'
loop_
 _atom_site_type_symbol
 _atom_site_label
 _atom_site_symmetry_multiplicity
 _atom_site_fract_x
 _atom_site_fract_y
 _atom_site_fract_z
 _atom_site_occupancy
  Bi  Bi0  1  0.97883188  0.06211953  0.25000077  1
  Bi  Bi1  1  0.52116716  0.56212045  0.25000077  1
  Bi  Bi2  1  0.47883282  0.43787965  0.74999977  1
  Bi  Bi3  1  0.02116810  0.93787883  0.74999977  1
  O  O4  1  0.68318417  0.31589879  0.06713204  1
  O  O5  1  0.81681487  0.81589797  0.06713204  1
  O  O6  1  0.14352116  0.43214153  0.25000077  1
  O  O7  1  0.35647791  0.93214246  0.25000077  1
  O  O8  1  0.68318417  0.31589879  0.43286824  1
  O  O9  1  0.81681487  0.81589797  0.43286824  1
  O  O10  1  0.18318511  0.18410388  0.56713104  1
  O  O11  1  0.31681395  0.68410306  0.56713104  1
  O  O12  1  0.64352022  0.06785764  0.74999977  1
  O  O13  1  0.85647883  0.56785682  0.74999977  1
  O  O14  1  0.18318511  0.18410388  0.93286851  1
  O  O15  1  0.31681395  0.68410306  0.93286851  1
  Zn  Zn16  1  0.49999906  0.00000000  0.00000000  1
  Zn  Zn17  1  0.00000000  0.49999918  0.00000000  1
  Zn  Zn18  1  0.49999906  0.00000000  0.50000027  1
  Zn  Zn19  1  0.00000000  0.49999918  0.50000027  1
