# generated using pymatgen
data_ErZnO3
_symmetry_space_group_name_H-M   'P 1'
_cell_length_a   5.20997663
_cell_length_b   5.74055036
_cell_length_c   7.41554546
_cell_angle_alpha   90.00000000
_cell_angle_beta   90.00000000
_cell_angle_gamma   90.00000000
_symmetry_Int_Tables_number   1
_chemical_formula_structural   ErZnO3
_chemical_formula_sum   'Er4 Zn4 O12'
_cell_volume   221.78512168
_cell_formula_units_Z   4
loop_
 _symmetry_equiv_pos_site_id
 _symmetry_equiv_pos_as_xyz
  1  'x, y, z'
loop_
 _atom_site_type_symbol
 _atom_site_label
 _atom_site_symmetry_multiplicity
 _atom_site_fract_x
 _atom_site_fract_y
 _atom_site_fract_z
 _atom_site_occupancy
  Er  Er0  1  0.97507731  0.08705437  0.24999914  1
  Er  Er1  1  0.52492366  0.58705521  0.24999914  1
  Er  Er2  1  0.47507699  0.41294647  0.75000012  1
  Er  Er3  1  0.02492334  0.91294557  0.75000012  1
  O  O4  1  0.69191097  0.31781099  0.05849738  1
  O  O5  1  0.80808808  0.81781009  0.05849738  1
  O  O6  1  0.12353030  0.45920336  0.24999914  1
  O  O7  1  0.37646810  0.95920245  0.24999914  1
  O  O8  1  0.69191097  0.31781099  0.44150225  1
  O  O9  1  0.80808808  0.81781009  0.44150225  1
  O  O10  1  0.19191257  0.18218985  0.55849701  1
  O  O11  1  0.30808775  0.68219069  0.55849701  1
  O  O12  1  0.62353255  0.04079748  0.75000012  1
  O  O13  1  0.87646842  0.54079658  0.75000012  1
  O  O14  1  0.19191257  0.18218985  0.94150323  1
  O  O15  1  0.30808775  0.68219069  0.94150323  1
  Zn  Zn16  1  0.50000032  0.00000000  0.00000000  1
  Zn  Zn17  1  0.00000000  0.49999910  0.00000000  1
  Zn  Zn18  1  0.50000032  0.00000000  0.49999963  1
  Zn  Zn19  1  0.00000000  0.49999910  0.49999963  1
