# generated using pymatgen
data_NdLuO3
_symmetry_space_group_name_H-M   'P 1'
_cell_length_a   5.73166100
_cell_length_b   5.97958100
_cell_length_c   8.32714300
_cell_angle_alpha   90.00000000
_cell_angle_beta   90.00000000
_cell_angle_gamma   90.00000000
_symmetry_Int_Tables_number   1
_chemical_formula_structural   NdLuO3
_chemical_formula_sum   'Nd4 Lu4 O12'
_cell_volume   285.39559925
_cell_formula_units_Z   4
loop_
 _symmetry_equiv_pos_site_id
 _symmetry_equiv_pos_as_xyz
  1  'x, y, z'
loop_
 _atom_site_type_symbol
 _atom_site_label
 _atom_site_symmetry_multiplicity
 _atom_site_fract_x
 _atom_site_fract_y
 _atom_site_fract_z
 _atom_site_occupancy
  Nd  Nd0  1  0.01447300  0.44545000  0.25000000  1
  Nd  Nd1  1  0.98552700  0.55455000  0.75000000  1
  Nd  Nd2  1  0.51447300  0.05455000  0.75000000  1
  Nd  Nd3  1  0.48552700  0.94545000  0.25000000  1
  Lu  Lu4  1  0.00000000  0.00000000  0.00000000  1
  Lu  Lu5  1  0.50000000  0.50000000  0.00000000  1
  Lu  Lu6  1  0.00000000  0.00000000  0.50000000  1
  Lu  Lu7  1  0.50000000  0.50000000  0.50000000  1
  O  O8  1  0.31121900  0.19107700  0.06499900  1
  O  O9  1  0.68878100  0.80892300  0.93500100  1
  O  O10  1  0.81121900  0.30892300  0.93500100  1
  O  O11  1  0.68878100  0.80892300  0.56499900  1
  O  O12  1  0.18878100  0.69107700  0.06499900  1
  O  O13  1  0.31121900  0.19107700  0.43500100  1
  O  O14  1  0.18878100  0.69107700  0.43500100  1
  O  O15  1  0.81121900  0.30892300  0.56499900  1
  O  O16  1  0.62397000  0.55409700  0.25000000  1
  O  O17  1  0.37603000  0.44590300  0.75000000  1
  O  O18  1  0.12397000  0.94590300  0.75000000  1
  O  O19  1  0.87603000  0.05409700  0.25000000  1
