# generated using pymatgen
data_KRhO3
_symmetry_space_group_name_H-M   'P 1'
_cell_length_a   5.57868980
_cell_length_b   5.54177794
_cell_length_c   7.89346300
_cell_angle_alpha   90.00000000
_cell_angle_beta   90.00000000
_cell_angle_gamma   90.00000000
_symmetry_Int_Tables_number   1
_chemical_formula_structural   KRhO3
_chemical_formula_sum   'K4 Rh4 O12'
_cell_volume   244.03319758
_cell_formula_units_Z   4
loop_
 _symmetry_equiv_pos_site_id
 _symmetry_equiv_pos_as_xyz
  1  'x, y, z'
loop_
 _atom_site_type_symbol
 _atom_site_label
 _atom_site_symmetry_multiplicity
 _atom_site_fract_x
 _atom_site_fract_y
 _atom_site_fract_z
 _atom_site_occupancy
  K  K0  1  0.99878828  0.01242201  0.24999927  1
  K  K1  1  0.50121088  0.51242400  0.24999927  1
  K  K2  1  0.49878916  0.48757637  0.75000035  1
  K  K3  1  0.00121175  0.98757656  0.75000035  1
  O  O4  1  0.72474186  0.27630483  0.01823154  1
  O  O5  1  0.77525909  0.77630501  0.01823154  1
  O  O6  1  0.46270183  0.00460502  0.24999927  1
  O  O7  1  0.03729729  0.50460521  0.24999927  1
  O  O8  1  0.72474186  0.27630483  0.48176827  1
  O  O9  1  0.77525909  0.77630501  0.48176827  1
  O  O10  1  0.22473915  0.22369536  0.51823135  1
  O  O11  1  0.27525997  0.72369374  0.51823135  1
  O  O12  1  0.96270096  0.49539517  0.75000035  1
  O  O13  1  0.53729641  0.99539535  0.75000035  1
  O  O14  1  0.22473915  0.22369536  0.98176808  1
  O  O15  1  0.27525997  0.72369374  0.98176808  1
  Rh  Rh16  1  0.49999912  0.00000000  0.00000000  1
  Rh  Rh17  1  0.00000000  0.49999838  0.00000000  1
  Rh  Rh18  1  0.49999912  0.00000000  0.49999981  1
  Rh  Rh19  1  0.00000000  0.49999838  0.49999981  1
