# generated using pymatgen
data_ScRhO3
_symmetry_space_group_name_H-M   'P 1'
_cell_length_a   5.12282800
_cell_length_b   5.54180700
_cell_length_c   7.57429700
_cell_angle_alpha   90.00000000
_cell_angle_beta   90.00000000
_cell_angle_gamma   90.00000000
_symmetry_Int_Tables_number   1
_chemical_formula_structural   ScRhO3
_chemical_formula_sum   'Sc4 Rh4 O12'
_cell_volume   215.03220186
_cell_formula_units_Z   4
loop_
 _symmetry_equiv_pos_site_id
 _symmetry_equiv_pos_as_xyz
  1  'x, y, z'
loop_
 _atom_site_type_symbol
 _atom_site_label
 _atom_site_symmetry_multiplicity
 _atom_site_fract_x
 _atom_site_fract_y
 _atom_site_fract_z
 _atom_site_occupancy
  Sc  Sc0  1  0.53396400  0.08069700  0.25000000  1
  Sc  Sc1  1  0.46603600  0.91930300  0.75000000  1
  Sc  Sc2  1  0.96603600  0.58069700  0.25000000  1
  Sc  Sc3  1  0.03396400  0.41930300  0.75000000  1
  Rh  Rh4  1  0.50000000  0.50000000  0.50000000  1
  Rh  Rh5  1  0.50000000  0.50000000  0.00000000  1
  Rh  Rh6  1  0.00000000  0.00000000  0.50000000  1
  Rh  Rh7  1  0.00000000  0.00000000  0.00000000  1
  O  O8  1  0.15414600  0.92785200  0.25000000  1
  O  O9  1  0.84585400  0.07214800  0.75000000  1
  O  O10  1  0.34585400  0.42785200  0.25000000  1
  O  O11  1  0.65414600  0.57214800  0.75000000  1
  O  O12  1  0.17191000  0.68387700  0.57694300  1
  O  O13  1  0.82809000  0.31612300  0.07694300  1
  O  O14  1  0.82809000  0.31612300  0.42305700  1
  O  O15  1  0.17191000  0.68387700  0.92305700  1
  O  O16  1  0.67191000  0.81612300  0.42305700  1
  O  O17  1  0.32809000  0.18387700  0.92305700  1
  O  O18  1  0.32809000  0.18387700  0.57694300  1
  O  O19  1  0.67191000  0.81612300  0.07694300  1
