# generated using pymatgen
data_RbGeCl3
_symmetry_space_group_name_H-M   'P 1'
_cell_length_a   7.43749700
_cell_length_b   8.02893400
_cell_length_c   10.93008000
_cell_angle_alpha   90.00000000
_cell_angle_beta   90.00000000
_cell_angle_gamma   90.00000000
_symmetry_Int_Tables_number   1
_chemical_formula_structural   RbGeCl3
_chemical_formula_sum   'Rb4 Ge4 Cl12'
_cell_volume   652.69161306
_cell_formula_units_Z   4
loop_
 _symmetry_equiv_pos_site_id
 _symmetry_equiv_pos_as_xyz
  1  'x, y, z'
loop_
 _atom_site_type_symbol
 _atom_site_label
 _atom_site_symmetry_multiplicity
 _atom_site_fract_x
 _atom_site_fract_y
 _atom_site_fract_z
 _atom_site_occupancy
  Rb  Rb0  1  0.97485400  0.42427400  0.75012800  1
  Rb  Rb1  1  0.47485400  0.07572600  0.25012800  1
  Rb  Rb2  1  0.52514600  0.92427400  0.75012800  1
  Rb  Rb3  1  0.02514600  0.57572600  0.25012800  1
  Ge  Ge4  1  0.48559800  0.46959200  0.51968800  1
  Ge  Ge5  1  0.51440200  0.53040800  0.01968800  1
  Ge  Ge6  1  0.01440200  0.96959200  0.51968800  1
  Ge  Ge7  1  0.98559800  0.03040800  0.01968800  1
  Cl  Cl8  1  0.33002400  0.77788200  0.03981300  1
  Cl  Cl9  1  0.16997600  0.27788200  0.03981300  1
  Cl  Cl10  1  0.83002400  0.72211800  0.53981300  1
  Cl  Cl11  1  0.28586900  0.81923500  0.47092600  1
  Cl  Cl12  1  0.21413100  0.31923500  0.47092600  1
  Cl  Cl13  1  0.78586900  0.68076500  0.97092600  1
  Cl  Cl14  1  0.42798200  0.49746700  0.73464400  1
  Cl  Cl15  1  0.71413100  0.18076500  0.97092600  1
  Cl  Cl16  1  0.92798200  0.00253300  0.23464400  1
  Cl  Cl17  1  0.57201800  0.50253300  0.23464400  1
  Cl  Cl18  1  0.07201800  0.99746700  0.73464400  1
  Cl  Cl19  1  0.66997600  0.22211800  0.53981300  1
