# generated using pymatgen
data_NiTeO3
_symmetry_space_group_name_H-M   'P 1'
_cell_length_a   5.48661500
_cell_length_b   5.61895300
_cell_length_c   8.15485700
_cell_angle_alpha   90.00000000
_cell_angle_beta   90.00000000
_cell_angle_gamma   90.00000000
_symmetry_Int_Tables_number   1
_chemical_formula_structural   NiTeO3
_chemical_formula_sum   'Ni4 Te4 O12'
_cell_volume   251.40634589
_cell_formula_units_Z   4
loop_
 _symmetry_equiv_pos_site_id
 _symmetry_equiv_pos_as_xyz
  1  'x, y, z'
loop_
 _atom_site_type_symbol
 _atom_site_label
 _atom_site_symmetry_multiplicity
 _atom_site_fract_x
 _atom_site_fract_y
 _atom_site_fract_z
 _atom_site_occupancy
  Ni  Ni0  1  0.99418700  0.47031700  0.25000000  1
  Ni  Ni1  1  0.00581300  0.52968300  0.75000000  1
  Ni  Ni2  1  0.49418700  0.02968300  0.75000000  1
  Ni  Ni3  1  0.50581300  0.97031700  0.25000000  1
  Te  Te4  1  0.00000000  0.00000000  0.00000000  1
  Te  Te5  1  0.50000000  0.50000000  0.00000000  1
  Te  Te6  1  0.00000000  0.00000000  0.50000000  1
  Te  Te7  1  0.50000000  0.50000000  0.50000000  1
  O  O8  1  0.33682900  0.16939600  0.07933100  1
  O  O9  1  0.66317100  0.83060400  0.92066900  1
  O  O10  1  0.83682900  0.33060400  0.92066900  1
  O  O11  1  0.66317100  0.83060400  0.57933100  1
  O  O12  1  0.16317100  0.66939600  0.07933100  1
  O  O13  1  0.33682900  0.16939600  0.42066900  1
  O  O14  1  0.16317100  0.66939600  0.42066900  1
  O  O15  1  0.83682900  0.33060400  0.57933100  1
  O  O16  1  0.64889700  0.60962500  0.25000000  1
  O  O17  1  0.35110300  0.39037500  0.75000000  1
  O  O18  1  0.14889700  0.89037500  0.75000000  1
  O  O19  1  0.85110300  0.10962500  0.25000000  1
