# generated using pymatgen
data_AcVO3
_symmetry_space_group_name_H-M   'P 1'
_cell_length_a   5.66427594
_cell_length_b   5.68355813
_cell_length_c   7.99741879
_cell_angle_alpha   90.00000000
_cell_angle_beta   90.00000000
_cell_angle_gamma   90.00000000
_symmetry_Int_Tables_number   1
_chemical_formula_structural   AcVO3
_chemical_formula_sum   'Ac4 V4 O12'
_cell_volume   257.46283501
_cell_formula_units_Z   4
loop_
 _symmetry_equiv_pos_site_id
 _symmetry_equiv_pos_as_xyz
  1  'x, y, z'
loop_
 _atom_site_type_symbol
 _atom_site_label
 _atom_site_symmetry_multiplicity
 _atom_site_fract_x
 _atom_site_fract_y
 _atom_site_fract_z
 _atom_site_occupancy
  Ac  Ac0  1  0.99351622  0.03051961  0.24999941  1
  Ac  Ac1  1  0.50648309  0.53051978  0.24999941  1
  Ac  Ac2  1  0.49351586  0.46948055  0.74999949  1
  Ac  Ac3  1  0.00648450  0.96948072  0.74999949  1
  O  O4  1  0.71419190  0.27827110  0.03125884  1
  O  O5  1  0.78580741  0.77827127  0.03125884  1
  O  O6  1  0.06274059  0.49461269  0.24999941  1
  O  O7  1  0.43725977  0.99461110  0.24999941  1
  O  O8  1  0.71419190  0.27827110  0.46874124  1
  O  O9  1  0.78580741  0.77827127  0.46874124  1
  O  O10  1  0.21419154  0.22172730  0.53125766  1
  O  O11  1  0.28580882  0.72172922  0.53125766  1
  O  O12  1  0.56273918  0.00538747  0.74999949  1
  O  O13  1  0.93726013  0.50538939  0.74999949  1
  O  O14  1  0.21419154  0.22172730  0.96874132  1
  O  O15  1  0.28580882  0.72172922  0.96874132  1
  V  V16  1  0.50000036  0.00000000  0.00000000  1
  V  V17  1  0.00000000  0.50000016  0.00000000  1
  V  V18  1  0.50000036  0.00000000  0.50000008  1
  V  V19  1  0.00000000  0.50000016  0.50000008  1
