# generated using pymatgen
data_CsPbI3
_symmetry_space_group_name_H-M   'P 1'
_cell_length_a   8.85338100
_cell_length_b   8.93053600
_cell_length_c   12.75775900
_cell_angle_alpha   90.00000000
_cell_angle_beta   90.00000000
_cell_angle_gamma   90.00000000
_symmetry_Int_Tables_number   1
_chemical_formula_structural   CsPbI3
_chemical_formula_sum   'Cs4 Pb4 I12'
_cell_volume   1008.69779994
_cell_formula_units_Z   4
loop_
 _symmetry_equiv_pos_site_id
 _symmetry_equiv_pos_as_xyz
  1  'x, y, z'
loop_
 _atom_site_type_symbol
 _atom_site_label
 _atom_site_symmetry_multiplicity
 _atom_site_fract_x
 _atom_site_fract_y
 _atom_site_fract_z
 _atom_site_occupancy
  Cs  Cs0  1  0.99242200  0.96543800  0.25000000  1
  Cs  Cs1  1  0.00757800  0.03456200  0.75000000  1
  Cs  Cs2  1  0.49242200  0.53456200  0.75000000  1
  Cs  Cs3  1  0.50757800  0.46543800  0.25000000  1
  Pb  Pb4  1  0.50000000  0.00000000  0.00000000  1
  Pb  Pb5  1  0.00000000  0.50000000  0.00000000  1
  Pb  Pb6  1  0.50000000  0.00000000  0.50000000  1
  Pb  Pb7  1  0.00000000  0.50000000  0.50000000  1
  I  I8  1  0.05147900  0.50714100  0.25000000  1
  I  I9  1  0.94852100  0.49285900  0.75000000  1
  I  I10  1  0.55147900  0.99285900  0.75000000  1
  I  I11  1  0.44852100  0.00714100  0.25000000  1
  I  I12  1  0.79662400  0.20392400  0.02592500  1
  I  I13  1  0.20337600  0.79607600  0.97407500  1
  I  I14  1  0.29662400  0.29607600  0.97407500  1
  I  I15  1  0.70337600  0.70392400  0.02592500  1
  I  I16  1  0.20337600  0.79607600  0.52592500  1
  I  I17  1  0.79662400  0.20392400  0.47407500  1
  I  I18  1  0.70337600  0.70392400  0.47407500  1
  I  I19  1  0.29662400  0.29607600  0.52592500  1
