# generated using pymatgen
data_SrPuO3
_symmetry_space_group_name_H-M   'P 1'
_cell_length_a   5.97889620
_cell_length_b   6.14652361
_cell_length_c   8.57023021
_cell_angle_alpha   90.00000000
_cell_angle_beta   90.00000000
_cell_angle_gamma   90.00000000
_symmetry_Int_Tables_number   1
_chemical_formula_structural   SrPuO3
_chemical_formula_sum   'Sr4 Pu4 O12'
_cell_volume   314.95104644
_cell_formula_units_Z   4
loop_
 _symmetry_equiv_pos_site_id
 _symmetry_equiv_pos_as_xyz
  1  'x, y, z'
loop_
 _atom_site_type_symbol
 _atom_site_label
 _atom_site_symmetry_multiplicity
 _atom_site_fract_x
 _atom_site_fract_y
 _atom_site_fract_z
 _atom_site_occupancy
  O  O0  1  0.69669549  0.30173153  0.05589698  1
  O  O1  1  0.80330379  0.80172961  0.05589698  1
  O  O2  1  0.10536226  0.45845264  0.25000029  1
  O  O3  1  0.39463806  0.95845398  0.25000029  1
  O  O4  1  0.69669549  0.30173153  0.44410242  1
  O  O5  1  0.80330379  0.80172961  0.44410242  1
  O  O6  1  0.19669684  0.19826817  0.55589755  1
  O  O7  1  0.30330348  0.69826951  0.55589755  1
  O  O8  1  0.60536258  0.04154706  0.74999969  1
  O  O9  1  0.89463838  0.54154677  0.74999969  1
  O  O10  1  0.19669684  0.19826817  0.94410299  1
  O  O11  1  0.30330348  0.69826951  0.94410299  1
  Pu  Pu12  1  0.50000032  0.00000000  0.00000000  1
  Pu  Pu13  1  0.00000000  0.49999971  0.00000000  1
  Pu  Pu14  1  0.50000032  0.00000000  0.50000057  1
  Pu  Pu15  1  0.00000000  0.49999971  0.50000057  1
  Sr  Sr16  1  0.98886313  0.04688016  0.25000029  1
  Sr  Sr17  1  0.51113615  0.54687986  0.25000029  1
  Sr  Sr18  1  0.48886281  0.45312118  0.74999969  1
  Sr  Sr19  1  0.01113751  0.95312088  0.74999969  1
