# generated using pymatgen
data_MnPbO3
_symmetry_space_group_name_H-M   'P 1'
_cell_length_a   5.44248901
_cell_length_b   5.53625395
_cell_length_c   7.74337036
_cell_angle_alpha   90.00000000
_cell_angle_beta   90.00000000
_cell_angle_gamma   90.00000000
_symmetry_Int_Tables_number   1
_chemical_formula_structural   MnPbO3
_chemical_formula_sum   'Mn4 Pb4 O12'
_cell_volume   233.31550241
_cell_formula_units_Z   4
loop_
 _symmetry_equiv_pos_site_id
 _symmetry_equiv_pos_as_xyz
  1  'x, y, z'
loop_
 _atom_site_type_symbol
 _atom_site_label
 _atom_site_symmetry_multiplicity
 _atom_site_fract_x
 _atom_site_fract_y
 _atom_site_fract_z
 _atom_site_occupancy
  Mn  Mn0  1  0.49999917  0.00000000  0.00000000  1
  Mn  Mn1  1  0.00000000  0.50000055  0.00000000  1
  Mn  Mn2  1  0.49999917  0.00000000  0.50000062  1
  Mn  Mn3  1  0.00000000  0.50000055  0.50000062  1
  O  O4  1  0.70989211  0.28766202  0.03513845  1
  O  O5  1  0.79010908  0.78766257  0.03513845  1
  O  O6  1  0.06946822  0.48368807  0.24999967  1
  O  O7  1  0.43053096  0.98368681  0.24999967  1
  O  O8  1  0.70989211  0.28766202  0.46486089  1
  O  O9  1  0.79010908  0.78766257  0.46486089  1
  O  O10  1  0.20989110  0.21233672  0.53513907  1
  O  O11  1  0.29010807  0.71233727  0.53513907  1
  O  O12  1  0.56946739  0.01631247  0.75000029  1
  O  O13  1  0.93053197  0.51631302  0.75000029  1
  O  O14  1  0.20989110  0.21233672  0.96486151  1
  O  O15  1  0.29010807  0.71233727  0.96486151  1
  Pb  Pb16  1  0.99412971  0.03354796  0.24999967  1
  Pb  Pb17  1  0.50586965  0.53354850  0.24999967  1
  Pb  Pb18  1  0.49412870  0.46645259  0.75000029  1
  Pb  Pb19  1  0.00587048  0.96645314  0.75000029  1
