# generated using pymatgen
data_CdCoO3
_symmetry_space_group_name_H-M   'P 1'
_cell_length_a   5.31471800
_cell_length_b   5.38902400
_cell_length_c   7.58912100
_cell_angle_alpha   90.00000000
_cell_angle_beta   90.00000000
_cell_angle_gamma   90.00000000
_symmetry_Int_Tables_number   1
_chemical_formula_structural   CdCoO3
_chemical_formula_sum   'Cd4 Co4 O12'
_cell_volume   217.36109871
_cell_formula_units_Z   4
loop_
 _symmetry_equiv_pos_site_id
 _symmetry_equiv_pos_as_xyz
  1  'x, y, z'
loop_
 _atom_site_type_symbol
 _atom_site_label
 _atom_site_symmetry_multiplicity
 _atom_site_fract_x
 _atom_site_fract_y
 _atom_site_fract_z
 _atom_site_occupancy
  Cd  Cd0  1  0.53962600  0.99370600  0.75000000  1
  Cd  Cd1  1  0.03962600  0.50629400  0.75000000  1
  Cd  Cd2  1  0.96037400  0.49370600  0.25000000  1
  Cd  Cd3  1  0.46037400  0.00629400  0.25000000  1
  Co  Co4  1  0.00000000  0.00000000  0.00000000  1
  Co  Co5  1  0.00000000  0.00000000  0.50000000  1
  Co  Co6  1  0.50000000  0.50000000  0.00000000  1
  Co  Co7  1  0.50000000  0.50000000  0.50000000  1
  O  O8  1  0.03444600  0.90444700  0.25000000  1
  O  O9  1  0.27153400  0.81366000  0.55037800  1
  O  O10  1  0.27153400  0.81366000  0.94962200  1
  O  O11  1  0.77153400  0.68634000  0.94962200  1
  O  O12  1  0.77153400  0.68634000  0.55037800  1
  O  O13  1  0.53444600  0.59555300  0.25000000  1
  O  O14  1  0.46555400  0.40444700  0.75000000  1
  O  O15  1  0.22846600  0.31366000  0.44962200  1
  O  O16  1  0.22846600  0.31366000  0.05037800  1
  O  O17  1  0.72846600  0.18634000  0.05037800  1
  O  O18  1  0.72846600  0.18634000  0.44962200  1
  O  O19  1  0.96555400  0.09555300  0.75000000  1
