# generated using pymatgen
data_RbSnBr3
_symmetry_space_group_name_H-M   'P 1'
_cell_length_a   5.86490200
_cell_length_b   5.86814219
_cell_length_c   5.87076276
_cell_angle_alpha   89.58245050
_cell_angle_beta   89.53211404
_cell_angle_gamma   89.85346367
_symmetry_Int_Tables_number   1
_chemical_formula_structural   RbSnBr3
_chemical_formula_sum   'Rb1 Sn1 Br3'
_cell_volume   202.03590167
_cell_formula_units_Z   1
loop_
 _symmetry_equiv_pos_site_id
 _symmetry_equiv_pos_as_xyz
  1  'x, y, z'
loop_
 _atom_site_type_symbol
 _atom_site_label
 _atom_site_symmetry_multiplicity
 _atom_site_fract_x
 _atom_site_fract_y
 _atom_site_fract_z
 _atom_site_occupancy
  Rb  Rb0  1  0.00524900  0.00760000  0.01423100  1
  Sn  Sn1  1  0.49406900  0.48951100  0.48506700  1
  Br  Br2  1  0.49857700  0.49380700  0.98187700  1
  Br  Br3  1  0.48192700  0.98600800  0.48080600  1
  Br  Br4  1  0.99017700  0.47307300  0.46801800  1
