# generated using pymatgen
data_KTmBr3
_symmetry_space_group_name_H-M   'P 1'
_cell_length_a   7.60302300
_cell_length_b   7.98206000
_cell_length_c   10.93947800
_cell_angle_alpha   90.00000000
_cell_angle_beta   90.00000000
_cell_angle_gamma   90.00000000
_symmetry_Int_Tables_number   1
_chemical_formula_structural   KTmBr3
_chemical_formula_sum   'K4 Tm4 Br12'
_cell_volume   663.89269727
_cell_formula_units_Z   4
loop_
 _symmetry_equiv_pos_site_id
 _symmetry_equiv_pos_as_xyz
  1  'x, y, z'
loop_
 _atom_site_type_symbol
 _atom_site_label
 _atom_site_symmetry_multiplicity
 _atom_site_fract_x
 _atom_site_fract_y
 _atom_site_fract_z
 _atom_site_occupancy
  K  K0  1  0.02741600  0.42848800  0.25000000  1
  K  K1  1  0.97258400  0.57151200  0.75000000  1
  K  K2  1  0.52741600  0.07151200  0.75000000  1
  K  K3  1  0.47258400  0.92848800  0.25000000  1
  Tm  Tm4  1  0.00000000  0.00000000  0.00000000  1
  Tm  Tm5  1  0.50000000  0.50000000  0.00000000  1
  Tm  Tm6  1  0.00000000  0.00000000  0.50000000  1
  Tm  Tm7  1  0.50000000  0.50000000  0.50000000  1
  Br  Br8  1  0.30001500  0.20402600  0.04449000  1
  Br  Br9  1  0.69998500  0.79597400  0.95551000  1
  Br  Br10  1  0.80001500  0.29597400  0.95551000  1
  Br  Br11  1  0.69998500  0.79597400  0.54449000  1
  Br  Br12  1  0.19998500  0.70402600  0.04449000  1
  Br  Br13  1  0.30001500  0.20402600  0.45551000  1
  Br  Br14  1  0.19998500  0.70402600  0.45551000  1
  Br  Br15  1  0.80001500  0.29597400  0.54449000  1
  Br  Br16  1  0.59981600  0.52316000  0.25000000  1
  Br  Br17  1  0.40018400  0.47684000  0.75000000  1
  Br  Br18  1  0.09981600  0.97684000  0.75000000  1
  Br  Br19  1  0.90018400  0.02316000  0.25000000  1
