# generated using pymatgen
data_RbDyBr3
_symmetry_space_group_name_H-M   'P 1'
_cell_length_a   7.70016100
_cell_length_b   8.23599300
_cell_length_c   11.25852100
_cell_angle_alpha   90.00000000
_cell_angle_beta   90.00000000
_cell_angle_gamma   90.00000000
_symmetry_Int_Tables_number   1
_chemical_formula_structural   RbDyBr3
_chemical_formula_sum   'Rb4 Dy4 Br12'
_cell_volume   713.99819987
_cell_formula_units_Z   4
loop_
 _symmetry_equiv_pos_site_id
 _symmetry_equiv_pos_as_xyz
  1  'x, y, z'
loop_
 _atom_site_type_symbol
 _atom_site_label
 _atom_site_symmetry_multiplicity
 _atom_site_fract_x
 _atom_site_fract_y
 _atom_site_fract_z
 _atom_site_occupancy
  Rb  Rb0  1  0.02986400  0.43097000  0.25000000  1
  Rb  Rb1  1  0.97013600  0.56903000  0.75000000  1
  Rb  Rb2  1  0.52986400  0.06903000  0.75000000  1
  Rb  Rb3  1  0.47013600  0.93097000  0.25000000  1
  Dy  Dy4  1  0.00000000  0.00000000  0.00000000  1
  Dy  Dy5  1  0.50000000  0.50000000  0.00000000  1
  Dy  Dy6  1  0.00000000  0.00000000  0.50000000  1
  Dy  Dy7  1  0.50000000  0.50000000  0.50000000  1
  Br  Br8  1  0.29213100  0.21295500  0.03411500  1
  Br  Br9  1  0.70786900  0.78704500  0.96588500  1
  Br  Br10  1  0.79213100  0.28704500  0.96588500  1
  Br  Br11  1  0.70786900  0.78704500  0.53411500  1
  Br  Br12  1  0.20786900  0.71295500  0.03411500  1
  Br  Br13  1  0.29213100  0.21295500  0.46588500  1
  Br  Br14  1  0.20786900  0.71295500  0.46588500  1
  Br  Br15  1  0.79213100  0.28704500  0.53411500  1
  Br  Br16  1  0.57984700  0.51082600  0.25000000  1
  Br  Br17  1  0.42015300  0.48917400  0.75000000  1
  Br  Br18  1  0.07984700  0.98917400  0.75000000  1
  Br  Br19  1  0.92015300  0.01082600  0.25000000  1
