# generated using pymatgen
data_ThCuO3
_symmetry_space_group_name_H-M   'P 1'
_cell_length_a   5.32797235
_cell_length_b   6.29332574
_cell_length_c   7.45840484
_cell_angle_alpha   90.00000000
_cell_angle_beta   90.00000000
_cell_angle_gamma   90.00000000
_symmetry_Int_Tables_number   1
_chemical_formula_structural   ThCuO3
_chemical_formula_sum   'Th4 Cu4 O12'
_cell_volume   250.08527844
_cell_formula_units_Z   4
loop_
 _symmetry_equiv_pos_site_id
 _symmetry_equiv_pos_as_xyz
  1  'x, y, z'
loop_
 _atom_site_type_symbol
 _atom_site_label
 _atom_site_symmetry_multiplicity
 _atom_site_fract_x
 _atom_site_fract_y
 _atom_site_fract_z
 _atom_site_occupancy
  Cu  Cu0  1  0.50000072  0.00000000  0.00000000  1
  Cu  Cu1  1  0.00000000  0.49999954  0.00000000  1
  Cu  Cu2  1  0.50000072  0.00000000  0.49999968  1
  Cu  Cu3  1  0.00000000  0.49999954  0.49999968  1
  O  O4  1  0.69291275  0.33961535  0.05450093  1
  O  O5  1  0.80708752  0.83961489  0.05450093  1
  O  O6  1  0.11877126  0.46462874  0.25000118  1
  O  O7  1  0.38122758  0.96462987  0.25000118  1
  O  O8  1  0.69291275  0.33961535  0.44550009  1
  O  O9  1  0.80708752  0.83961489  0.44550009  1
  O  O10  1  0.19291204  0.16038420  0.55450061  1
  O  O11  1  0.30708680  0.66038374  0.55450061  1
  O  O12  1  0.61877198  0.03536922  0.75000085  1
  O  O13  1  0.88122830  0.53537035  0.75000085  1
  O  O14  1  0.19291204  0.16038420  0.94549976  1
  O  O15  1  0.30708680  0.66038374  0.94549976  1
  Th  Th16  1  0.97254071  0.10525119  0.25000118  1
  Th  Th17  1  0.52745769  0.60525073  0.25000118  1
  Th  Th18  1  0.47254187  0.39474995  0.75000085  1
  Th  Th19  1  0.02745885  0.89474949  0.75000085  1
