# generated using pymatgen
data_DyFeO3
_symmetry_space_group_name_H-M   'P 1'
_cell_length_a   5.33306400
_cell_length_b   5.65585500
_cell_length_c   7.71307200
_cell_angle_alpha   90.00000000
_cell_angle_beta   90.00000000
_cell_angle_gamma   90.00000000
_symmetry_Int_Tables_number   1
_chemical_formula_structural   DyFeO3
_chemical_formula_sum   'Dy4 Fe4 O12'
_cell_volume   232.64967373
_cell_formula_units_Z   4
loop_
 _symmetry_equiv_pos_site_id
 _symmetry_equiv_pos_as_xyz
  1  'x, y, z'
loop_
 _atom_site_type_symbol
 _atom_site_label
 _atom_site_symmetry_multiplicity
 _atom_site_fract_x
 _atom_site_fract_y
 _atom_site_fract_z
 _atom_site_occupancy
  Dy  Dy0  1  0.01898100  0.93074500  0.75000000  1
  Dy  Dy1  1  0.51898100  0.56925500  0.25000000  1
  Dy  Dy2  1  0.48101900  0.43074500  0.75000000  1
  Dy  Dy3  1  0.98101900  0.06925500  0.25000000  1
  Fe  Fe4  1  0.50000000  0.00000000  0.50000000  1
  Fe  Fe5  1  0.00000000  0.50000000  0.50000000  1
  Fe  Fe6  1  0.00000000  0.50000000  0.00000000  1
  Fe  Fe7  1  0.50000000  0.00000000  0.00000000  1
  O  O8  1  0.30904300  0.69360800  0.55953300  1
  O  O9  1  0.80904300  0.80639200  0.44046700  1
  O  O10  1  0.19095700  0.19360800  0.94046700  1
  O  O11  1  0.69095700  0.30639200  0.05953300  1
  O  O12  1  0.69095700  0.30639200  0.44046700  1
  O  O13  1  0.19095700  0.19360800  0.55953300  1
  O  O14  1  0.80904300  0.80639200  0.05953300  1
  O  O15  1  0.30904300  0.69360800  0.94046700  1
  O  O16  1  0.11646200  0.45683900  0.25000000  1
  O  O17  1  0.61646200  0.04316100  0.75000000  1
  O  O18  1  0.38353800  0.95683900  0.25000000  1
  O  O19  1  0.88353800  0.54316100  0.75000000  1
