# generated using pymatgen
data_YTmO3
_symmetry_space_group_name_H-M   'P 1'
_cell_length_a   5.66425100
_cell_length_b   5.92267600
_cell_length_c   8.30527100
_cell_angle_alpha   90.00000000
_cell_angle_beta   90.00000000
_cell_angle_gamma   90.00000000
_symmetry_Int_Tables_number   1
_chemical_formula_structural   YTmO3
_chemical_formula_sum   'Y4 Tm4 O12'
_cell_volume   278.62127368
_cell_formula_units_Z   4
loop_
 _symmetry_equiv_pos_site_id
 _symmetry_equiv_pos_as_xyz
  1  'x, y, z'
loop_
 _atom_site_type_symbol
 _atom_site_label
 _atom_site_symmetry_multiplicity
 _atom_site_fract_x
 _atom_site_fract_y
 _atom_site_fract_z
 _atom_site_occupancy
  Y  Y0  1  0.01537900  0.94700000  0.75000000  1
  Y  Y1  1  0.48462100  0.44700000  0.75000000  1
  Y  Y2  1  0.51537900  0.55300000  0.25000000  1
  Y  Y3  1  0.98462100  0.05300000  0.25000000  1
  Tm  Tm4  1  0.00000000  0.50000000  0.00000000  1
  Tm  Tm5  1  0.00000000  0.50000000  0.50000000  1
  Tm  Tm6  1  0.50000000  0.00000000  0.00000000  1
  Tm  Tm7  1  0.50000000  0.00000000  0.50000000  1
  O  O8  1  0.14490700  0.42235000  0.25000000  1
  O  O9  1  0.18279000  0.18614800  0.57514800  1
  O  O10  1  0.18279000  0.18614800  0.92485200  1
  O  O11  1  0.31721000  0.68614800  0.92485200  1
  O  O12  1  0.31721000  0.68614800  0.57514800  1
  O  O13  1  0.35509300  0.92235000  0.25000000  1
  O  O14  1  0.64490700  0.07765000  0.75000000  1
  O  O15  1  0.68279000  0.31385200  0.42485200  1
  O  O16  1  0.68279000  0.31385200  0.07514800  1
  O  O17  1  0.81721000  0.81385200  0.07514800  1
  O  O18  1  0.81721000  0.81385200  0.42485200  1
  O  O19  1  0.85509300  0.57765000  0.75000000  1
