# generated using pymatgen
data_PmRuO3
_symmetry_space_group_name_H-M   'P 1'
_cell_length_a   5.31453432
_cell_length_b   5.87732927
_cell_length_c   7.73210077
_cell_angle_alpha   90.00000000
_cell_angle_beta   90.00000000
_cell_angle_gamma   90.00000000
_symmetry_Int_Tables_number   1
_chemical_formula_structural   PmRuO3
_chemical_formula_sum   'Pm4 Ru4 O12'
_cell_volume   241.51424069
_cell_formula_units_Z   4
loop_
 _symmetry_equiv_pos_site_id
 _symmetry_equiv_pos_as_xyz
  1  'x, y, z'
loop_
 _atom_site_type_symbol
 _atom_site_label
 _atom_site_symmetry_multiplicity
 _atom_site_fract_x
 _atom_site_fract_y
 _atom_site_fract_z
 _atom_site_occupancy
  O  O0  1  0.68094960  0.30543635  0.05389868  1
  O  O1  1  0.81905013  0.80543556  0.05389868  1
  O  O2  1  0.11627736  0.45850928  0.25000062  1
  O  O3  1  0.38372318  0.95850849  0.25000062  1
  O  O4  1  0.68094960  0.30543635  0.44610127  1
  O  O5  1  0.81905013  0.80543556  0.44610127  1
  O  O6  1  0.18095094  0.19456456  0.55389863  1
  O  O7  1  0.31904959  0.69456377  0.55389863  1
  O  O8  1  0.61627601  0.04149163  0.75000057  1
  O  O9  1  0.88372371  0.54149085  0.75000057  1
  O  O10  1  0.18095094  0.19456456  0.94610122  1
  O  O11  1  0.31904959  0.69456377  0.94610122  1
  Pm  Pm12  1  0.97107473  0.07787210  0.25000062  1
  Pm  Pm13  1  0.52892499  0.57787302  0.25000062  1
  Pm  Pm14  1  0.47107420  0.42212711  0.75000057  1
  Pm  Pm15  1  0.02892633  0.92212802  0.75000057  1
  Ru  Ru16  1  0.50000053  0.00000000  0.00000000  1
  Ru  Ru17  1  0.00000000  0.49999921  0.00000000  1
  Ru  Ru18  1  0.50000053  0.00000000  0.49999995  1
  Ru  Ru19  1  0.00000000  0.49999921  0.49999995  1
