# generated using pymatgen
data_BaTlO3
_symmetry_space_group_name_H-M   'P 1'
_cell_length_a   6.14686265
_cell_length_b   6.06489003
_cell_length_c   8.62999713
_cell_angle_alpha   90.00000000
_cell_angle_beta   90.00000000
_cell_angle_gamma   90.00000000
_symmetry_Int_Tables_number   1
_chemical_formula_structural   BaTlO3
_chemical_formula_sum   'Ba4 Tl4 O12'
_cell_volume   321.72669014
_cell_formula_units_Z   4
loop_
 _symmetry_equiv_pos_site_id
 _symmetry_equiv_pos_as_xyz
  1  'x, y, z'
loop_
 _atom_site_type_symbol
 _atom_site_label
 _atom_site_symmetry_multiplicity
 _atom_site_fract_x
 _atom_site_fract_y
 _atom_site_fract_z
 _atom_site_occupancy
  Ba  Ba0  1  0.99552900  0.01945790  0.25000008  1
  Ba  Ba1  1  0.50447036  0.51945707  0.25000008  1
  Ba  Ba2  1  0.49552921  0.48054293  0.74999909  1
  Ba  Ba3  1  0.00447057  0.98054210  0.74999909  1
  O  O4  1  0.72360654  0.27104036  0.03536154  1
  O  O5  1  0.77639444  0.77103954  0.03536154  1
  O  O6  1  0.06405870  0.48911687  0.25000008  1
  O  O7  1  0.43594109  0.98911769  0.25000008  1
  O  O8  1  0.72360654  0.27104036  0.46463747  1
  O  O9  1  0.77639444  0.77103954  0.46463747  1
  O  O10  1  0.22360513  0.22896046  0.53536287  1
  O  O11  1  0.27639466  0.72895963  0.53536287  1
  O  O12  1  0.56406011  0.01088231  0.74999909  1
  O  O13  1  0.93594087  0.51088313  0.74999909  1
  O  O14  1  0.22360513  0.22896046  0.96463763  1
  O  O15  1  0.27639466  0.72895963  0.96463763  1
  Tl  Tl16  1  0.50000141  0.00000000  0.00000000  1
  Tl  Tl17  1  0.00000000  0.49999917  0.00000000  1
  Tl  Tl18  1  0.50000141  0.00000000  0.50000017  1
  Tl  Tl19  1  0.00000000  0.49999917  0.50000017  1
