# generated using pymatgen
data_KHoO3
_symmetry_space_group_name_H-M   'P 1'
_cell_length_a   6.19252631
_cell_length_b   6.23191619
_cell_length_c   8.78184612
_cell_angle_alpha   90.00000000
_cell_angle_beta   90.00000000
_cell_angle_gamma   90.00000000
_symmetry_Int_Tables_number   1
_chemical_formula_structural   KHoO3
_chemical_formula_sum   'K4 Ho4 O12'
_cell_volume   338.90290179
_cell_formula_units_Z   4
loop_
 _symmetry_equiv_pos_site_id
 _symmetry_equiv_pos_as_xyz
  1  'x, y, z'
loop_
 _atom_site_type_symbol
 _atom_site_label
 _atom_site_symmetry_multiplicity
 _atom_site_fract_x
 _atom_site_fract_y
 _atom_site_fract_z
 _atom_site_occupancy
  Ho  Ho0  1  0.49999949  0.00000000  0.00000000  1
  Ho  Ho1  1  0.00000000  0.50000031  0.00000000  1
  Ho  Ho2  1  0.49999949  0.00000000  0.50000079  1
  Ho  Ho3  1  0.00000000  0.50000031  0.50000079  1
  K  K4  1  0.99944772  0.00488453  0.24999983  1
  K  K5  1  0.50055177  0.50488484  0.24999983  1
  K  K6  1  0.49944883  0.49511577  0.74999948  1
  K  K7  1  0.00055228  0.99511447  0.74999948  1
  O  O8  1  0.73244259  0.26820804  0.01500823  1
  O  O9  1  0.76755750  0.76820674  0.01500823  1
  O  O10  1  0.03157516  0.48880632  0.24999983  1
  O  O11  1  0.46842433  0.98880662  0.24999983  1
  O  O12  1  0.73244259  0.26820804  0.48499142  1
  O  O13  1  0.76755750  0.76820674  0.48499142  1
  O  O14  1  0.23244310  0.23179227  0.51500789  1
  O  O15  1  0.26755639  0.73179258  0.51500789  1
  O  O16  1  0.53157465  0.01119399  0.74999948  1
  O  O17  1  0.96842544  0.51119429  0.74999948  1
  O  O18  1  0.23244310  0.23179227  0.98499221  1
  O  O19  1  0.26755639  0.73179258  0.98499221  1
