# generated using pymatgen
data_NaTeO3
_symmetry_space_group_name_H-M   'P 1'
_cell_length_a   5.54622707
_cell_length_b   5.65180081
_cell_length_c   7.91052817
_cell_angle_alpha   90.00000000
_cell_angle_beta   90.00000000
_cell_angle_gamma   90.00000000
_symmetry_Int_Tables_number   1
_chemical_formula_structural   NaTeO3
_chemical_formula_sum   'Na4 Te4 O12'
_cell_volume   247.96476578
_cell_formula_units_Z   4
loop_
 _symmetry_equiv_pos_site_id
 _symmetry_equiv_pos_as_xyz
  1  'x, y, z'
loop_
 _atom_site_type_symbol
 _atom_site_label
 _atom_site_symmetry_multiplicity
 _atom_site_fract_x
 _atom_site_fract_y
 _atom_site_fract_z
 _atom_site_occupancy
  Na  Na0  1  0.99091327  0.03778442  0.24999974  1
  Na  Na1  1  0.50908842  0.53778435  0.24999974  1
  Na  Na2  1  0.49091210  0.46221551  0.75000049  1
  Na  Na3  1  0.00908906  0.96221721  0.75000049  1
  O  O4  1  0.70433467  0.29322866  0.04767065  1
  O  O5  1  0.79566522  0.79322859  0.04767065  1
  O  O6  1  0.09219421  0.47409491  0.24999974  1
  O  O7  1  0.40780696  0.97409484  0.24999974  1
  O  O8  1  0.70433467  0.29322866  0.45232757  1
  O  O9  1  0.79566522  0.79322859  0.45232757  1
  O  O10  1  0.20433531  0.20677303  0.54767140  1
  O  O11  1  0.29566406  0.70677296  0.54767140  1
  O  O12  1  0.59219357  0.02590502  0.75000049  1
  O  O13  1  0.90780813  0.52590495  0.75000049  1
  O  O14  1  0.20433531  0.20677303  0.95232832  1
  O  O15  1  0.29566406  0.70677296  0.95232832  1
  Te  Te16  1  0.49999936  0.00000000  0.00000000  1
  Te  Te17  1  0.00000000  0.49999993  0.00000000  1
  Te  Te18  1  0.49999936  0.00000000  0.50000075  1
  Te  Te19  1  0.00000000  0.49999993  0.50000075  1
