# generated using pymatgen
data_NpHgO3
_symmetry_space_group_name_H-M   'P 1'
_cell_length_a   5.87030950
_cell_length_b   5.95617239
_cell_length_c   8.61558248
_cell_angle_alpha   90.00000000
_cell_angle_beta   90.00000000
_cell_angle_gamma   90.00000000
_symmetry_Int_Tables_number   1
_chemical_formula_structural   NpHgO3
_chemical_formula_sum   'Np4 Hg4 O12'
_cell_volume   301.24018282
_cell_formula_units_Z   4
loop_
 _symmetry_equiv_pos_site_id
 _symmetry_equiv_pos_as_xyz
  1  'x, y, z'
loop_
 _atom_site_type_symbol
 _atom_site_label
 _atom_site_symmetry_multiplicity
 _atom_site_fract_x
 _atom_site_fract_y
 _atom_site_fract_z
 _atom_site_occupancy
  Hg  Hg0  1  0.99146221  0.04670281  0.25000051  1
  Hg  Hg1  1  0.50854048  0.54670345  0.25000051  1
  Hg  Hg2  1  0.49145961  0.45329615  0.75000036  1
  Hg  Hg3  1  0.00853958  0.95329679  0.75000036  1
  Np  Np4  1  0.50000089  0.00000000  0.00000000  1
  Np  Np5  1  0.00000000  0.49999896  0.00000000  1
  Np  Np6  1  0.50000089  0.00000000  0.49999986  1
  Np  Np7  1  0.00000000  0.49999896  0.49999986  1
  O  O8  1  0.67479917  0.31966503  0.06705989  1
  O  O9  1  0.82519840  0.81966399  0.06705989  1
  O  O10  1  0.11590190  0.41902917  0.25000051  1
  O  O11  1  0.38409730  0.91903149  0.25000051  1
  O  O12  1  0.67479917  0.31966503  0.43293997  1
  O  O13  1  0.82519840  0.81966399  0.43293997  1
  O  O14  1  0.17479998  0.18033393  0.56705974  1
  O  O15  1  0.32519921  0.68033289  0.56705974  1
  O  O16  1  0.61590279  0.08096811  0.75000036  1
  O  O17  1  0.88409478  0.58096875  0.75000036  1
  O  O18  1  0.17479998  0.18033393  0.93293750  1
  O  O19  1  0.32519921  0.68033289  0.93293750  1
