# generated using pymatgen
data_CoBiO3
_symmetry_space_group_name_H-M   'P 1'
_cell_length_a   5.36540800
_cell_length_b   5.50862800
_cell_length_c   7.62915900
_cell_angle_alpha   90.00000000
_cell_angle_beta   90.00000000
_cell_angle_gamma   90.00000000
_symmetry_Int_Tables_number   1
_chemical_formula_structural   CoBiO3
_chemical_formula_sum   'Co4 Bi4 O12'
_cell_volume   225.48770370
_cell_formula_units_Z   4
loop_
 _symmetry_equiv_pos_site_id
 _symmetry_equiv_pos_as_xyz
  1  'x, y, z'
loop_
 _atom_site_type_symbol
 _atom_site_label
 _atom_site_symmetry_multiplicity
 _atom_site_fract_x
 _atom_site_fract_y
 _atom_site_fract_z
 _atom_site_occupancy
  Co  Co0  1  0.50000000  0.00000000  0.00000000  1
  Co  Co1  1  0.00000000  0.50000000  0.50000000  1
  Co  Co2  1  0.50000000  0.00000000  0.50000000  1
  Co  Co3  1  0.00000000  0.50000000  0.00000000  1
  Bi  Bi4  1  0.51007600  0.55403100  0.25000000  1
  Bi  Bi5  1  0.98992400  0.05403100  0.25000000  1
  Bi  Bi6  1  0.48992400  0.44596900  0.75000000  1
  Bi  Bi7  1  0.01007600  0.94596900  0.75000000  1
  O  O8  1  0.41669700  0.97652100  0.25000000  1
  O  O9  1  0.08330300  0.47652100  0.25000000  1
  O  O10  1  0.58330300  0.02347900  0.75000000  1
  O  O11  1  0.91669700  0.52347900  0.75000000  1
  O  O12  1  0.79549200  0.79298200  0.04158200  1
  O  O13  1  0.70450800  0.29298200  0.45841800  1
  O  O14  1  0.20450800  0.20701800  0.54158200  1
  O  O15  1  0.29549200  0.70701800  0.95841800  1
  O  O16  1  0.20450800  0.20701800  0.95841800  1
  O  O17  1  0.29549200  0.70701800  0.54158200  1
  O  O18  1  0.79549200  0.79298200  0.45841800  1
  O  O19  1  0.70450800  0.29298200  0.04158200  1
