# generated using pymatgen
data_SrPtO3
_symmetry_space_group_name_H-M   'P 1'
_cell_length_a   5.59466273
_cell_length_b   5.71874374
_cell_length_c   7.94191839
_cell_angle_alpha   90.00000000
_cell_angle_beta   90.00000000
_cell_angle_gamma   90.00000000
_symmetry_Int_Tables_number   1
_chemical_formula_structural   SrPtO3
_chemical_formula_sum   'Sr4 Pt4 O12'
_cell_volume   254.09725096
_cell_formula_units_Z   4
loop_
 _symmetry_equiv_pos_site_id
 _symmetry_equiv_pos_as_xyz
  1  'x, y, z'
loop_
 _atom_site_type_symbol
 _atom_site_label
 _atom_site_symmetry_multiplicity
 _atom_site_fract_x
 _atom_site_fract_y
 _atom_site_fract_z
 _atom_site_occupancy
  O  O0  1  0.69855149  0.29787486  0.04489092  1
  O  O1  1  0.80144777  0.79787628  0.04489092  1
  O  O2  1  0.09053808  0.47747375  0.25000005  1
  O  O3  1  0.40945989  0.97747517  0.25000005  1
  O  O4  1  0.69855149  0.29787486  0.45510918  1
  O  O5  1  0.80144777  0.79787628  0.45510918  1
  O  O6  1  0.19855352  0.20212306  0.54489102  1
  O  O7  1  0.30144802  0.70212449  0.54489102  1
  O  O8  1  0.59053962  0.02252593  0.75000015  1
  O  O9  1  0.90945965  0.52252560  0.75000015  1
  O  O10  1  0.19855352  0.20212306  0.95510929  1
  O  O11  1  0.30144802  0.70212449  0.95510929  1
  Pt  Pt12  1  0.49999976  0.00000000  0.00000000  1
  Pt  Pt13  1  0.00000000  0.50000142  0.00000000  1
  Pt  Pt14  1  0.49999976  0.00000000  0.50000010  1
  Pt  Pt15  1  0.00000000  0.50000142  0.50000010  1
  Sr  Sr16  1  0.98715870  0.05370585  0.25000005  1
  Sr  Sr17  1  0.51284057  0.55370552  0.25000005  1
  Sr  Sr18  1  0.48715716  0.44629382  0.75000015  1
  Sr  Sr19  1  0.01284260  0.94629524  0.75000015  1
