# generated using pymatgen
data_LaCuO3
_symmetry_space_group_name_H-M   'P 1'
_cell_length_a   5.47010595
_cell_length_b   5.41353913
_cell_length_c   7.68562188
_cell_angle_alpha   90.00000000
_cell_angle_beta   90.00000000
_cell_angle_gamma   90.00000000
_symmetry_Int_Tables_number   1
_chemical_formula_structural   LaCuO3
_chemical_formula_sum   'La4 Cu4 O12'
_cell_volume   227.59149731
_cell_formula_units_Z   4
loop_
 _symmetry_equiv_pos_site_id
 _symmetry_equiv_pos_as_xyz
  1  'x, y, z'
loop_
 _atom_site_type_symbol
 _atom_site_label
 _atom_site_symmetry_multiplicity
 _atom_site_fract_x
 _atom_site_fract_y
 _atom_site_fract_z
 _atom_site_occupancy
  Cu  Cu0  1  0.49999946  0.00000000  0.00000000  1
  Cu  Cu1  1  0.00000000  0.50000008  0.00000000  1
  Cu  Cu2  1  0.49999946  0.00000000  0.49999988  1
  Cu  Cu3  1  0.00000000  0.50000008  0.49999988  1
  La  La4  1  0.99663335  0.02313828  0.24999929  1
  La  La5  1  0.50336685  0.52313836  0.24999929  1
  La  La6  1  0.49663206  0.47685995  0.75000047  1
  La  La7  1  0.00336739  0.97686003  0.75000047  1
  O  O8  1  0.72723820  0.27448587  0.03079517  1
  O  O9  1  0.77276200  0.77448595  0.03079517  1
  O  O10  1  0.05754368  0.49711103  0.24999929  1
  O  O11  1  0.44245761  0.99711111  0.24999929  1
  O  O12  1  0.72723820  0.27448587  0.46920341  1
  O  O13  1  0.77276200  0.77448595  0.46920341  1
  O  O14  1  0.22723874  0.22551421  0.53079634  1
  O  O15  1  0.27276071  0.72551429  0.53079634  1
  O  O16  1  0.55754313  0.00288721  0.75000047  1
  O  O17  1  0.94245707  0.50288913  0.75000047  1
  O  O18  1  0.22723874  0.22551421  0.96920459  1
  O  O19  1  0.27276071  0.72551429  0.96920459  1
