# generated using pymatgen
data_NbBiO3
_symmetry_space_group_name_H-M   'P 1'
_cell_length_a   5.63954991
_cell_length_b   5.71045819
_cell_length_c   8.24624521
_cell_angle_alpha   90.00000000
_cell_angle_beta   90.00000000
_cell_angle_gamma   90.00000000
_symmetry_Int_Tables_number   1
_chemical_formula_structural   NbBiO3
_chemical_formula_sum   'Nb4 Bi4 O12'
_cell_volume   265.56549422
_cell_formula_units_Z   4
loop_
 _symmetry_equiv_pos_site_id
 _symmetry_equiv_pos_as_xyz
  1  'x, y, z'
loop_
 _atom_site_type_symbol
 _atom_site_label
 _atom_site_symmetry_multiplicity
 _atom_site_fract_x
 _atom_site_fract_y
 _atom_site_fract_z
 _atom_site_occupancy
  Bi  Bi0  1  0.50524599  0.49333695  0.24999984  1
  Bi  Bi1  1  0.99475492  0.99333710  0.24999984  1
  Bi  Bi2  1  0.00524687  0.00666146  0.74999953  1
  Bi  Bi3  1  0.49475225  0.50666162  0.74999953  1
  Nb  Nb4  1  0.49999912  0.00000000  0.00000000  1
  Nb  Nb5  1  0.00000000  0.49999841  0.00000000  1
  Nb  Nb6  1  0.49999912  0.00000000  0.49999847  1
  Nb  Nb7  1  0.00000000  0.49999841  0.49999847  1
  O  O8  1  0.68592708  0.31411315  0.00182871  1
  O  O9  1  0.81407206  0.81411506  0.00182871  1
  O  O10  1  0.01425823  0.46232367  0.24999984  1
  O  O11  1  0.48574089  0.96232208  0.24999984  1
  O  O12  1  0.68592708  0.31411315  0.49817219  1
  O  O13  1  0.81407206  0.81411506  0.49817219  1
  O  O14  1  0.18592441  0.18588526  0.50182961  1
  O  O15  1  0.31407294  0.68588367  0.50182961  1
  O  O16  1  0.51425735  0.03767649  0.74999953  1
  O  O17  1  0.98574001  0.53767665  0.74999953  1
  O  O18  1  0.18592441  0.18588526  0.99817187  1
  O  O19  1  0.31407294  0.68588367  0.99817187  1
