# generated using pymatgen
data_CuHgO3
_symmetry_space_group_name_H-M   'P 1'
_cell_length_a   5.31461234
_cell_length_b   5.42440369
_cell_length_c   7.53795860
_cell_angle_alpha   90.00000000
_cell_angle_beta   90.00000000
_cell_angle_gamma   90.00000000
_symmetry_Int_Tables_number   1
_chemical_formula_structural   CuHgO3
_chemical_formula_sum   'Cu4 Hg4 O12'
_cell_volume   217.30881427
_cell_formula_units_Z   4
loop_
 _symmetry_equiv_pos_site_id
 _symmetry_equiv_pos_as_xyz
  1  'x, y, z'
loop_
 _atom_site_type_symbol
 _atom_site_label
 _atom_site_symmetry_multiplicity
 _atom_site_fract_x
 _atom_site_fract_y
 _atom_site_fract_z
 _atom_site_occupancy
  Cu  Cu0  1  0.50000072  0.00000000  0.00000000  1
  Cu  Cu1  1  0.00000000  0.50000150  0.00000000  1
  Cu  Cu2  1  0.50000072  0.00000000  0.50000009  1
  Cu  Cu3  1  0.00000000  0.50000150  0.50000009  1
  Hg  Hg4  1  0.99061035  0.04212260  0.25000005  1
  Hg  Hg5  1  0.50938993  0.54212411  0.25000005  1
  Hg  Hg6  1  0.49061151  0.45787521  0.75000014  1
  Hg  Hg7  1  0.00938921  0.95787672  0.75000014  1
  O  O8  1  0.70007552  0.29854710  0.04826506  1
  O  O9  1  0.79992476  0.79854860  0.04826506  1
  O  O10  1  0.09020978  0.46110875  0.25000005  1
  O  O11  1  0.40979094  0.96110841  0.25000005  1
  O  O12  1  0.70007552  0.29854710  0.45173504  1
  O  O13  1  0.79992476  0.79854860  0.45173504  1
  O  O14  1  0.20007668  0.20145071  0.54826515  1
  O  O15  1  0.29992404  0.70145222  0.54826515  1
  O  O16  1  0.59020862  0.03889091  0.75000014  1
  O  O17  1  0.90978978  0.53889057  0.75000014  1
  O  O18  1  0.20007668  0.20145071  0.95173513  1
  O  O19  1  0.29992404  0.70145222  0.95173513  1
