# generated using pymatgen
data_SrHoO3
_symmetry_space_group_name_H-M   'P 1'
_cell_length_a   5.95178480
_cell_length_b   6.12389622
_cell_length_c   8.43806506
_cell_angle_alpha   90.00000000
_cell_angle_beta   90.00000000
_cell_angle_gamma   90.00000000
_symmetry_Int_Tables_number   1
_chemical_formula_structural   SrHoO3
_chemical_formula_sum   'Sr4 Ho4 O12'
_cell_volume   307.55154403
_cell_formula_units_Z   4
loop_
 _symmetry_equiv_pos_site_id
 _symmetry_equiv_pos_as_xyz
  1  'x, y, z'
loop_
 _atom_site_type_symbol
 _atom_site_label
 _atom_site_symmetry_multiplicity
 _atom_site_fract_x
 _atom_site_fract_y
 _atom_site_fract_z
 _atom_site_occupancy
  Ho  Ho0  1  0.49999960  0.00000000  0.00000000  1
  Ho  Ho1  1  0.00000000  0.49999868  0.00000000  1
  Ho  Ho2  1  0.49999960  0.00000000  0.49999970  1
  Ho  Ho3  1  0.00000000  0.49999868  0.49999970  1
  O  O4  1  0.70884451  0.28837523  0.06087533  1
  O  O5  1  0.79115596  0.78837554  0.06087533  1
  O  O6  1  0.11225876  0.45289468  0.25000044  1
  O  O7  1  0.38774083  0.95289335  0.25000044  1
  O  O8  1  0.70884451  0.28837523  0.43912437  1
  O  O9  1  0.79115596  0.78837554  0.43912437  1
  O  O10  1  0.20884324  0.21162344  0.56087503  1
  O  O11  1  0.29115636  0.71162538  0.56087503  1
  O  O12  1  0.61226004  0.04710563  0.75000014  1
  O  O13  1  0.88774043  0.54710594  0.75000014  1
  O  O14  1  0.20884324  0.21162344  0.93912525  1
  O  O15  1  0.29115636  0.71162538  0.93912525  1
  Sr  Sr16  1  0.98178113  0.04953219  0.25000044  1
  Sr  Sr17  1  0.51821766  0.54953087  0.25000044  1
  Sr  Sr18  1  0.48178153  0.45046812  0.75000014  1
  Sr  Sr19  1  0.01821806  0.95046843  0.75000014  1
