# generated using pymatgen
data_BaPtO3
_symmetry_space_group_name_H-M   'P 1'
_cell_length_a   5.83040374
_cell_length_b   5.74322384
_cell_length_c   8.21803147
_cell_angle_alpha   90.00000000
_cell_angle_beta   90.00000000
_cell_angle_gamma   90.00000000
_symmetry_Int_Tables_number   1
_chemical_formula_structural   BaPtO3
_chemical_formula_sum   'Ba4 Pt4 O12'
_cell_volume   275.18336260
_cell_formula_units_Z   4
loop_
 _symmetry_equiv_pos_site_id
 _symmetry_equiv_pos_as_xyz
  1  'x, y, z'
loop_
 _atom_site_type_symbol
 _atom_site_label
 _atom_site_symmetry_multiplicity
 _atom_site_fract_x
 _atom_site_fract_y
 _atom_site_fract_z
 _atom_site_occupancy
  Ba  Ba0  1  0.99732201  0.02411712  0.24999904  1
  Ba  Ba1  1  0.50267874  0.52411678  0.24999904  1
  Ba  Ba2  1  0.49732062  0.47588255  0.74999956  1
  Ba  Ba3  1  0.00267906  0.97588221  0.74999956  1
  O  O4  1  0.71486645  0.28568101  0.02964092  1
  O  O5  1  0.78513259  0.78568242  0.02964092  1
  O  O6  1  0.44015648  0.00388110  0.24999904  1
  O  O7  1  0.05984320  0.50387902  0.24999904  1
  O  O8  1  0.71486645  0.28568101  0.47035960  1
  O  O9  1  0.78513259  0.78568242  0.47035960  1
  O  O10  1  0.21486677  0.21431865  0.52964022  1
  O  O11  1  0.28513463  0.71431832  0.52964022  1
  O  O12  1  0.94015616  0.49612031  0.74999956  1
  O  O13  1  0.55984459  0.99611998  0.74999956  1
  O  O14  1  0.21486677  0.21431865  0.97036012  1
  O  O15  1  0.28513463  0.71431832  0.97036012  1
  Pt  Pt16  1  0.49999968  0.00000000  0.00000000  1
  Pt  Pt17  1  0.00000000  0.49999967  0.00000000  1
  Pt  Pt18  1  0.49999968  0.00000000  0.50000052  1
  Pt  Pt19  1  0.00000000  0.49999967  0.50000052  1
