# generated using pymatgen
data_SmHoO3
_symmetry_space_group_name_H-M   'P 1'
_cell_length_a   5.76511600
_cell_length_b   6.02410500
_cell_length_c   8.44694400
_cell_angle_alpha   90.00000000
_cell_angle_beta   90.00000000
_cell_angle_gamma   90.00000000
_symmetry_Int_Tables_number   1
_chemical_formula_structural   SmHoO3
_chemical_formula_sum   'Sm4 Ho4 O12'
_cell_volume   293.35952797
_cell_formula_units_Z   4
loop_
 _symmetry_equiv_pos_site_id
 _symmetry_equiv_pos_as_xyz
  1  'x, y, z'
loop_
 _atom_site_type_symbol
 _atom_site_label
 _atom_site_symmetry_multiplicity
 _atom_site_fract_x
 _atom_site_fract_y
 _atom_site_fract_z
 _atom_site_occupancy
  Sm  Sm0  1  0.98502500  0.05219200  0.25000000  1
  Sm  Sm1  1  0.48502500  0.44780800  0.75000000  1
  Sm  Sm2  1  0.51497500  0.55219200  0.25000000  1
  Sm  Sm3  1  0.01497500  0.94780800  0.75000000  1
  Ho  Ho4  1  0.50000000  0.00000000  0.00000000  1
  Ho  Ho5  1  0.50000000  0.00000000  0.50000000  1
  Ho  Ho6  1  0.00000000  0.50000000  0.00000000  1
  Ho  Ho7  1  0.00000000  0.50000000  0.50000000  1
  O  O8  1  0.63942900  0.07154900  0.75000000  1
  O  O9  1  0.18341500  0.18665400  0.57298200  1
  O  O10  1  0.18341500  0.18665400  0.92701800  1
  O  O11  1  0.68341500  0.31334600  0.42701800  1
  O  O12  1  0.68341500  0.31334600  0.07298200  1
  O  O13  1  0.13942900  0.42845100  0.25000000  1
  O  O14  1  0.86057100  0.57154900  0.75000000  1
  O  O15  1  0.31658500  0.68665400  0.57298200  1
  O  O16  1  0.31658500  0.68665400  0.92701800  1
  O  O17  1  0.81658500  0.81334600  0.07298200  1
  O  O18  1  0.81658500  0.81334600  0.42701800  1
  O  O19  1  0.36057100  0.92845100  0.25000000  1
