# generated using pymatgen
data_CeCuO3
_symmetry_space_group_name_H-M   'P 1'
_cell_length_a   5.47556193
_cell_length_b   5.40691140
_cell_length_c   7.70848828
_cell_angle_alpha   90.00000000
_cell_angle_beta   90.00000000
_cell_angle_gamma   90.00000000
_symmetry_Int_Tables_number   1
_chemical_formula_structural   CeCuO3
_chemical_formula_sum   'Ce4 Cu4 O12'
_cell_volume   228.21656562
_cell_formula_units_Z   4
loop_
 _symmetry_equiv_pos_site_id
 _symmetry_equiv_pos_as_xyz
  1  'x, y, z'
loop_
 _atom_site_type_symbol
 _atom_site_label
 _atom_site_symmetry_multiplicity
 _atom_site_fract_x
 _atom_site_fract_y
 _atom_site_fract_z
 _atom_site_occupancy
  Ce  Ce0  1  0.99488784  0.02674910  0.24999973  1
  Ce  Ce1  1  0.50511163  0.52674989  0.24999973  1
  Ce  Ce2  1  0.49488802  0.47324985  0.75000049  1
  Ce  Ce3  1  0.00511180  0.97324879  0.75000049  1
  Cu  Cu4  1  0.49999982  0.00000000  0.00000000  1
  Cu  Cu5  1  0.00000000  0.49999895  0.00000000  1
  Cu  Cu6  1  0.49999982  0.00000000  0.49999946  1
  Cu  Cu7  1  0.00000000  0.49999895  0.49999946  1
  O  O8  1  0.72869781  0.27355913  0.03293382  1
  O  O9  1  0.77130166  0.77355993  0.03293382  1
  O  O10  1  0.05988244  0.49847127  0.24999973  1
  O  O11  1  0.44011556  0.99847022  0.24999973  1
  O  O12  1  0.72869781  0.27355913  0.46706694  1
  O  O13  1  0.77130166  0.77355993  0.46706694  1
  O  O14  1  0.22869799  0.22644166  0.53293329  1
  O  O15  1  0.27130184  0.72644061  0.53293329  1
  O  O16  1  0.55988409  0.00152952  0.75000049  1
  O  O17  1  0.94011538  0.50152847  0.75000049  1
  O  O18  1  0.22869799  0.22644166  0.96706640  1
  O  O19  1  0.27130184  0.72644061  0.96706640  1
