# generated using pymatgen
data_CaHoO3
_symmetry_space_group_name_H-M   'P 1'
_cell_length_a   5.87868250
_cell_length_b   6.10504104
_cell_length_c   7.81414366
_cell_angle_alpha   90.00000000
_cell_angle_beta   90.00000000
_cell_angle_gamma   90.00000000
_symmetry_Int_Tables_number   1
_chemical_formula_structural   CaHoO3
_chemical_formula_sum   'Ca4 Ho4 O12'
_cell_volume   280.44647413
_cell_formula_units_Z   4
loop_
 _symmetry_equiv_pos_site_id
 _symmetry_equiv_pos_as_xyz
  1  'x, y, z'
loop_
 _atom_site_type_symbol
 _atom_site_label
 _atom_site_symmetry_multiplicity
 _atom_site_fract_x
 _atom_site_fract_y
 _atom_site_fract_z
 _atom_site_occupancy
  Ca  Ca0  1  0.98325433  0.05793409  0.25000052  1
  Ca  Ca1  1  0.51674504  0.55793401  0.25000052  1
  Ca  Ca2  1  0.48325454  0.44206419  0.75000029  1
  Ca  Ca3  1  0.01674525  0.94206574  0.75000029  1
  Ho  Ho4  1  0.50000149  0.00000000  0.00000000  1
  Ho  Ho5  1  0.00000000  0.49999991  0.00000000  1
  Ho  Ho6  1  0.50000149  0.00000000  0.49999977  1
  Ho  Ho7  1  0.00000000  0.49999991  0.49999977  1
  O  O8  1  0.70489264  0.29075972  0.08785736  1
  O  O9  1  0.79510503  0.79075963  0.08785736  1
  O  O10  1  0.15818340  0.41306192  0.25000052  1
  O  O11  1  0.34181468  0.91306184  0.25000052  1
  O  O12  1  0.70489264  0.29075972  0.41214241  1
  O  O13  1  0.79510503  0.79075963  0.41214241  1
  O  O14  1  0.20489455  0.20924020  0.58785840  1
  O  O15  1  0.29510694  0.70923848  0.58785840  1
  O  O16  1  0.65818489  0.08693963  0.75000029  1
  O  O17  1  0.84181617  0.58693791  0.75000029  1
  O  O18  1  0.20489455  0.20924020  0.91214218  1
  O  O19  1  0.29510694  0.70923848  0.91214218  1
