# generated using pymatgen
data_SrNdO3
_symmetry_space_group_name_H-M   'P 1'
_cell_length_a   6.09458955
_cell_length_b   6.30291310
_cell_length_c   8.71729458
_cell_angle_alpha   90.00000000
_cell_angle_beta   90.00000000
_cell_angle_gamma   90.00000000
_symmetry_Int_Tables_number   1
_chemical_formula_structural   SrNdO3
_chemical_formula_sum   'Sr4 Nd4 O12'
_cell_volume   334.86326262
_cell_formula_units_Z   4
loop_
 _symmetry_equiv_pos_site_id
 _symmetry_equiv_pos_as_xyz
  1  'x, y, z'
loop_
 _atom_site_type_symbol
 _atom_site_label
 _atom_site_symmetry_multiplicity
 _atom_site_fract_x
 _atom_site_fract_y
 _atom_site_fract_z
 _atom_site_occupancy
  Nd  Nd0  1  0.50000086  0.00000000  0.00000000  1
  Nd  Nd1  1  0.00000000  0.50000055  0.00000000  1
  Nd  Nd2  1  0.50000086  0.00000000  0.50000031  1
  Nd  Nd3  1  0.00000000  0.50000055  0.50000031  1
  O  O4  1  0.70332874  0.29500803  0.07011694  1
  O  O5  1  0.79667055  0.79500858  0.07011694  1
  O  O6  1  0.12882902  0.43658225  0.25000073  1
  O  O7  1  0.37117184  0.93658121  0.25000073  1
  O  O8  1  0.70332874  0.29500803  0.42988337  1
  O  O9  1  0.79667055  0.79500858  0.42988337  1
  O  O10  1  0.20333117  0.20499093  0.57011610  1
  O  O11  1  0.29666969  0.70499147  0.57011610  1
  O  O12  1  0.62882824  0.06341829  0.74999989  1
  O  O13  1  0.87117105  0.56341884  0.74999989  1
  O  O14  1  0.20333117  0.20499093  0.92988368  1
  O  O15  1  0.29666969  0.70499147  0.92988368  1
  Sr  Sr16  1  0.97898307  0.05282002  0.25000073  1
  Sr  Sr17  1  0.52101786  0.55282057  0.25000073  1
  Sr  Sr18  1  0.47898221  0.44717894  0.74999989  1
  Sr  Sr19  1  0.02101864  0.94717949  0.74999989  1
