# generated using pymatgen
data_LaTaO3
_symmetry_space_group_name_H-M   'P 1'
_cell_length_a   5.58267994
_cell_length_b   5.93783870
_cell_length_c   7.99044401
_cell_angle_alpha   90.00000000
_cell_angle_beta   90.00000000
_cell_angle_gamma   90.00000000
_symmetry_Int_Tables_number   1
_chemical_formula_structural   LaTaO3
_chemical_formula_sum   'La4 Ta4 O12'
_cell_volume   264.87565149
_cell_formula_units_Z   4
loop_
 _symmetry_equiv_pos_site_id
 _symmetry_equiv_pos_as_xyz
  1  'x, y, z'
loop_
 _atom_site_type_symbol
 _atom_site_label
 _atom_site_symmetry_multiplicity
 _atom_site_fract_x
 _atom_site_fract_y
 _atom_site_fract_z
 _atom_site_occupancy
  La  La0  1  0.97917668  0.07295752  0.24999987  1
  La  La1  1  0.52082334  0.57295763  0.24999987  1
  La  La2  1  0.47917667  0.42704259  0.74999962  1
  La  La3  1  0.02082333  0.92704270  0.74999962  1
  O  O4  1  0.70067244  0.28951780  0.03885516  1
  O  O5  1  0.79932757  0.78951791  0.03885516  1
  O  O6  1  0.09519263  0.48159442  0.24999987  1
  O  O7  1  0.40480737  0.98159453  0.24999987  1
  O  O8  1  0.70067244  0.28951780  0.46114459  1
  O  O9  1  0.79932757  0.78951791  0.46114459  1
  O  O10  1  0.20067244  0.21048231  0.53885491  1
  O  O11  1  0.29932757  0.71048242  0.53885491  1
  O  O12  1  0.59519264  0.01840569  0.74999962  1
  O  O13  1  0.90480738  0.51840580  0.74999962  1
  O  O14  1  0.20067244  0.21048231  0.96114559  1
  O  O15  1  0.29932757  0.71048242  0.96114559  1
  Ta  Ta16  1  0.50000001  0.00000000  0.00000000  1
  Ta  Ta17  1  0.00000000  0.50000011  0.00000000  1
  Ta  Ta18  1  0.50000001  0.00000000  0.49999975  1
  Ta  Ta19  1  0.00000000  0.50000011  0.49999975  1
