# generated using pymatgen
data_TmAlO3
_symmetry_space_group_name_H-M   'P 1'
_cell_length_a   5.15524400
_cell_length_b   5.37670600
_cell_length_c   7.38990200
_cell_angle_alpha   90.00000000
_cell_angle_beta   90.00000000
_cell_angle_gamma   90.00000000
_symmetry_Int_Tables_number   1
_chemical_formula_structural   TmAlO3
_chemical_formula_sum   'Tm4 Al4 O12'
_cell_volume   204.83501326
_cell_formula_units_Z   4
loop_
 _symmetry_equiv_pos_site_id
 _symmetry_equiv_pos_as_xyz
  1  'x, y, z'
loop_
 _atom_site_type_symbol
 _atom_site_label
 _atom_site_symmetry_multiplicity
 _atom_site_fract_x
 _atom_site_fract_y
 _atom_site_fract_z
 _atom_site_occupancy
  Tm  Tm0  1  0.01581700  0.93858400  0.75000000  1
  Tm  Tm1  1  0.48418300  0.43858400  0.75000000  1
  Tm  Tm2  1  0.51581700  0.56141600  0.25000000  1
  Tm  Tm3  1  0.98418300  0.06141600  0.25000000  1
  Al  Al4  1  0.00000000  0.50000000  0.00000000  1
  Al  Al5  1  0.00000000  0.50000000  0.50000000  1
  Al  Al6  1  0.50000000  0.00000000  0.00000000  1
  Al  Al7  1  0.50000000  0.00000000  0.50000000  1
  O  O8  1  0.09667400  0.47110200  0.25000000  1
  O  O9  1  0.20086200  0.20221400  0.55068600  1
  O  O10  1  0.20086200  0.20221400  0.94931400  1
  O  O11  1  0.29913800  0.70221400  0.94931400  1
  O  O12  1  0.29913800  0.70221400  0.55068600  1
  O  O13  1  0.40332600  0.97110200  0.25000000  1
  O  O14  1  0.59667400  0.02889800  0.75000000  1
  O  O15  1  0.70086200  0.29778600  0.05068600  1
  O  O16  1  0.70086200  0.29778600  0.44931400  1
  O  O17  1  0.79913800  0.79778600  0.05068600  1
  O  O18  1  0.79913800  0.79778600  0.44931400  1
  O  O19  1  0.90332600  0.52889800  0.75000000  1
