# generated using pymatgen
data_TmAlO3
_symmetry_space_group_name_H-M   'P 1'
_cell_length_a   3.63925584
_cell_length_b   3.63925584
_cell_length_c   3.73596904
_cell_angle_alpha   90.00000000
_cell_angle_beta   90.00000000
_cell_angle_gamma   90.00000000
_symmetry_Int_Tables_number   1
_chemical_formula_structural   TmAlO3
_chemical_formula_sum   'Tm1 Al1 O3'
_cell_volume   49.47985791
_cell_formula_units_Z   1
loop_
 _symmetry_equiv_pos_site_id
 _symmetry_equiv_pos_as_xyz
  1  'x, y, z'
loop_
 _atom_site_type_symbol
 _atom_site_label
 _atom_site_symmetry_multiplicity
 _atom_site_fract_x
 _atom_site_fract_y
 _atom_site_fract_z
 _atom_site_occupancy
  Al  Al0  1  0.50000057  0.50000057  0.57730136  1
  O  O1  1  0.50000057  0.50000057  0.08994989  1
  O  O2  1  0.50000057  0.00000000  0.60995955  1
  O  O3  1  0.00000000  0.50000057  0.60995955  1
  Tm  Tm4  1  0.00000000  0.00000000  0.01282666  1
