# generated using pymatgen
data_SnGeO3
_symmetry_space_group_name_H-M   'P 1'
_cell_length_a   5.27418299
_cell_length_b   5.87921649
_cell_length_c   7.90925588
_cell_angle_alpha   90.00000000
_cell_angle_beta   90.00000000
_cell_angle_gamma   90.00000000
_symmetry_Int_Tables_number   1
_chemical_formula_structural   SnGeO3
_chemical_formula_sum   'Sn4 Ge4 O12'
_cell_volume   245.25070949
_cell_formula_units_Z   4
loop_
 _symmetry_equiv_pos_site_id
 _symmetry_equiv_pos_as_xyz
  1  'x, y, z'
loop_
 _atom_site_type_symbol
 _atom_site_label
 _atom_site_symmetry_multiplicity
 _atom_site_fract_x
 _atom_site_fract_y
 _atom_site_fract_z
 _atom_site_occupancy
  Ge  Ge0  1  0.98292191  0.02211519  0.24999950  1
  Ge  Ge1  1  0.51707724  0.52211379  0.24999950  1
  Ge  Ge2  1  0.48292219  0.47788511  0.74999976  1
  Ge  Ge3  1  0.01707753  0.97788541  0.74999976  1
  O  O4  1  0.65822138  0.31564580  0.05679295  1
  O  O5  1  0.84177967  0.81564610  0.05679295  1
  O  O6  1  0.14179827  0.46972416  0.24999950  1
  O  O7  1  0.35820145  0.96972275  0.24999950  1
  O  O8  1  0.65822138  0.31564580  0.44320731  1
  O  O9  1  0.84177967  0.81564610  0.44320731  1
  O  O10  1  0.15822166  0.18435450  0.55679321  1
  O  O11  1  0.34177805  0.68435480  0.55679321  1
  O  O12  1  0.64179609  0.03027614  0.74999976  1
  O  O13  1  0.85820306  0.53027644  0.74999976  1
  O  O14  1  0.15822166  0.18435450  0.94320630  1
  O  O15  1  0.34177805  0.68435480  0.94320630  1
  Sn  Sn16  1  0.49999972  0.00000000  0.00000000  1
  Sn  Sn17  1  0.00000000  0.50000030  0.00000000  1
  Sn  Sn18  1  0.49999972  0.00000000  0.49999900  1
  Sn  Sn19  1  0.00000000  0.50000030  0.49999900  1
