# generated using pymatgen
data_ZrCdO3
_symmetry_space_group_name_H-M   'P 1'
_cell_length_a   5.60993600
_cell_length_b   8.11288300
_cell_length_c   5.65136600
_cell_angle_alpha   90.00000000
_cell_angle_beta   90.00000000
_cell_angle_gamma   90.00000000
_symmetry_Int_Tables_number   1
_chemical_formula_structural   ZrCdO3
_chemical_formula_sum   'Zr4 Cd4 O12'
_cell_volume   257.20923281
_cell_formula_units_Z   4
loop_
 _symmetry_equiv_pos_site_id
 _symmetry_equiv_pos_as_xyz
  1  'x, y, z'
loop_
 _atom_site_type_symbol
 _atom_site_label
 _atom_site_symmetry_multiplicity
 _atom_site_fract_x
 _atom_site_fract_y
 _atom_site_fract_z
 _atom_site_occupancy
  Cd  Cd0  1  0.00743844  0.00000000  0.96275860  1
  Cd  Cd1  1  0.49256168  0.00000000  0.46275827  1
  Cd  Cd2  1  0.50743857  0.50000000  0.53724240  1
  Cd  Cd3  1  0.99256181  0.50000000  0.03724207  1
  O  O4  1  0.09409120  0.50000000  0.47055281  1
  O  O5  1  0.19574174  0.20264205  0.21443907  1
  O  O6  1  0.19574174  0.79735795  0.21443907  1
  O  O7  1  0.30425838  0.20264205  0.71443753  1
  O  O8  1  0.30425838  0.79735795  0.71443753  1
  O  O9  1  0.40590892  0.50000000  0.97055315  1
  O  O10  1  0.59409133  0.00000000  0.02944752  1
  O  O11  1  0.69574186  0.70264204  0.28556126  1
  O  O12  1  0.69574186  0.29735796  0.28556126  1
  O  O13  1  0.80425851  0.70264204  0.78556159  1
  O  O14  1  0.80425851  0.29735796  0.78556159  1
  O  O15  1  0.90590905  0.00000000  0.52944598  1
  Zr  Zr16  1  0.00000000  0.74999998  0.50000033  1
  Zr  Zr17  1  0.00000000  0.25000002  0.50000033  1
  Zr  Zr18  1  0.50000012  0.74999998  0.00000000  1
  Zr  Zr19  1  0.50000012  0.25000002  0.00000000  1
