# generated using pymatgen
data_LiSiO3
_symmetry_space_group_name_H-M   'P 1'
_cell_length_a   4.78491610
_cell_length_b   4.92894770
_cell_length_c   6.79724020
_cell_angle_alpha   90.00000000
_cell_angle_beta   90.00000000
_cell_angle_gamma   90.00000000
_symmetry_Int_Tables_number   1
_chemical_formula_structural   LiSiO3
_chemical_formula_sum   'Li4 Si4 O12'
_cell_volume   160.31019930
_cell_formula_units_Z   4
loop_
 _symmetry_equiv_pos_site_id
 _symmetry_equiv_pos_as_xyz
  1  'x, y, z'
loop_
 _atom_site_type_symbol
 _atom_site_label
 _atom_site_symmetry_multiplicity
 _atom_site_fract_x
 _atom_site_fract_y
 _atom_site_fract_z
 _atom_site_occupancy
  Li  Li0  1  0.98969969  0.03300299  0.24999999  1
  Li  Li1  1  0.51030153  0.53300424  0.24999999  1
  Li  Li2  1  0.48969929  0.46699623  0.74999998  1
  Li  Li3  1  0.01029903  0.96699748  0.74999998  1
  O  O4  1  0.71250570  0.28645871  0.04483437  1
  O  O5  1  0.78749552  0.78645996  0.04483437  1
  O  O6  1  0.09121581  0.47994017  0.24999999  1
  O  O7  1  0.40878460  0.97993939  0.24999999  1
  O  O8  1  0.71250570  0.28645871  0.45516414  1
  O  O9  1  0.78749552  0.78645996  0.45516414  1
  O  O10  1  0.21250529  0.21354051  0.54483436  1
  O  O11  1  0.28749720  0.71353973  0.54483436  1
  O  O12  1  0.59121622  0.02005905  0.74999998  1
  O  O13  1  0.90878292  0.52006030  0.74999998  1
  O  O14  1  0.21250529  0.21354051  0.95516560  1
  O  O15  1  0.28749720  0.71353973  0.95516560  1
  Si  Si16  1  0.50000041  0.00000000  0.00000000  1
  Si  Si17  1  0.00000000  0.49999922  0.00000000  1
  Si  Si18  1  0.50000041  0.00000000  0.49999998  1
  Si  Si19  1  0.00000000  0.49999922  0.49999998  1
