# generated using pymatgen
data_AlPbO3
_symmetry_space_group_name_H-M   'P 1'
_cell_length_a   5.31428265
_cell_length_b   5.41253707
_cell_length_c   7.53372033
_cell_angle_alpha   90.00000000
_cell_angle_beta   90.00000000
_cell_angle_gamma   90.00000000
_symmetry_Int_Tables_number   1
_chemical_formula_structural   AlPbO3
_chemical_formula_sum   'Al4 Pb4 O12'
_cell_volume   216.69806223
_cell_formula_units_Z   4
loop_
 _symmetry_equiv_pos_site_id
 _symmetry_equiv_pos_as_xyz
  1  'x, y, z'
loop_
 _atom_site_type_symbol
 _atom_site_label
 _atom_site_symmetry_multiplicity
 _atom_site_fract_x
 _atom_site_fract_y
 _atom_site_fract_z
 _atom_site_occupancy
  Al  Al0  1  0.49999975  0.00000000  0.00000000  1
  Al  Al1  1  0.00000000  0.50000027  0.00000000  1
  Al  Al2  1  0.49999975  0.00000000  0.49999998  1
  Al  Al3  1  0.00000000  0.50000027  0.49999998  1
  O  O4  1  0.71004880  0.28792228  0.03509023  1
  O  O5  1  0.78995234  0.78792255  0.03509023  1
  O  O6  1  0.07063418  0.48413156  0.24999999  1
  O  O7  1  0.42936557  0.98413183  0.24999999  1
  O  O8  1  0.71004880  0.28792228  0.46490842  1
  O  O9  1  0.78995234  0.78792255  0.46490842  1
  O  O10  1  0.21004905  0.21207799  0.53509021  1
  O  O11  1  0.28995259  0.71207826  0.53509021  1
  O  O12  1  0.57063581  0.01586871  0.74999997  1
  O  O13  1  0.92936344  0.51586898  0.74999997  1
  O  O14  1  0.21004905  0.21207799  0.96490972  1
  O  O15  1  0.28995259  0.71207826  0.96490972  1
  Pb  Pb16  1  0.99357719  0.03760159  0.24999999  1
  Pb  Pb17  1  0.50642207  0.53760186  0.24999999  1
  Pb  Pb18  1  0.49357932  0.46239868  0.74999997  1
  Pb  Pb19  1  0.00642232  0.96239895  0.74999997  1
