# generated using pymatgen
data_TlVO3
_symmetry_space_group_name_H-M   'P 1'
_cell_length_a   5.40641234
_cell_length_b   5.51250515
_cell_length_c   7.80747393
_cell_angle_alpha   90.00000000
_cell_angle_beta   90.00000000
_cell_angle_gamma   90.00000000
_symmetry_Int_Tables_number   1
_chemical_formula_structural   TlVO3
_chemical_formula_sum   'Tl4 V4 O12'
_cell_volume   232.68517652
_cell_formula_units_Z   4
loop_
 _symmetry_equiv_pos_site_id
 _symmetry_equiv_pos_as_xyz
  1  'x, y, z'
loop_
 _atom_site_type_symbol
 _atom_site_label
 _atom_site_symmetry_multiplicity
 _atom_site_fract_x
 _atom_site_fract_y
 _atom_site_fract_z
 _atom_site_occupancy
  O  O0  1  0.69092214  0.29892036  0.05852213  1
  O  O1  1  0.80907628  0.79891989  0.05852213  1
  O  O2  1  0.10725597  0.44828439  0.25000019  1
  O  O3  1  0.39274289  0.94828392  0.25000019  1
  O  O4  1  0.69092214  0.29892036  0.44147826  1
  O  O5  1  0.80907628  0.79891989  0.44147826  1
  O  O6  1  0.19092328  0.20107918  0.55852252  1
  O  O7  1  0.30907742  0.70108052  0.55852252  1
  O  O8  1  0.60725668  0.05171514  0.75000058  1
  O  O9  1  0.89274360  0.55171649  0.75000058  1
  O  O10  1  0.19092328  0.20107918  0.94147737  1
  O  O11  1  0.30907742  0.70108052  0.94147737  1
  Tl  Tl12  1  0.98853910  0.04587751  0.25000019  1
  Tl  Tl13  1  0.51146117  0.54587704  0.25000019  1
  Tl  Tl14  1  0.48853839  0.45412202  0.75000058  1
  Tl  Tl15  1  0.01146047  0.95412337  0.75000058  1
  V  V16  1  0.50000071  0.00000000  0.00000000  1
  V  V17  1  0.00000000  0.49999953  0.00000000  1
  V  V18  1  0.50000071  0.00000000  0.50000039  1
  V  V19  1  0.00000000  0.49999953  0.50000039  1
