# generated using pymatgen
data_HfSnO3
_symmetry_space_group_name_H-M   'P 1'
_cell_length_a   5.82077802
_cell_length_b   5.79671631
_cell_length_c   8.21354276
_cell_angle_alpha   90.00000000
_cell_angle_beta   90.00000000
_cell_angle_gamma   90.00000000
_symmetry_Int_Tables_number   1
_chemical_formula_structural   HfSnO3
_chemical_formula_sum   'Hf4 Sn4 O12'
_cell_volume   277.13642264
_cell_formula_units_Z   4
loop_
 _symmetry_equiv_pos_site_id
 _symmetry_equiv_pos_as_xyz
  1  'x, y, z'
loop_
 _atom_site_type_symbol
 _atom_site_label
 _atom_site_symmetry_multiplicity
 _atom_site_fract_x
 _atom_site_fract_y
 _atom_site_fract_z
 _atom_site_occupancy
  Hf  Hf0  1  0.50000017  0.00000000  0.00000000  1
  Hf  Hf1  1  0.00000000  0.50000032  0.00000000  1
  Hf  Hf2  1  0.50000017  0.00000000  0.49999983  1
  Hf  Hf3  1  0.00000000  0.50000032  0.49999983  1
  O  O4  1  0.72100843  0.27953067  0.03712771  1
  O  O5  1  0.77899208  0.77953271  0.03712771  1
  O  O6  1  0.44839367  0.03375532  0.25000052  1
  O  O7  1  0.05160650  0.53375391  0.25000052  1
  O  O8  1  0.72100843  0.27953067  0.46287213  1
  O  O9  1  0.77899208  0.77953271  0.46287213  1
  O  O10  1  0.22100826  0.22046792  0.53712754  1
  O  O11  1  0.27899020  0.72046824  0.53712754  1
  O  O12  1  0.94839384  0.46624500  0.75000036  1
  O  O13  1  0.55160667  0.96624532  0.75000036  1
  O  O14  1  0.22100826  0.22046792  0.96287196  1
  O  O15  1  0.27899020  0.72046824  0.96287196  1
  Sn  Sn16  1  0.52412925  0.43988007  0.25000052  1
  Sn  Sn17  1  0.97586954  0.93988212  0.25000052  1
  Sn  Sn18  1  0.02412908  0.06011852  0.75000036  1
  Sn  Sn19  1  0.47587109  0.56011884  0.75000036  1
