# generated using pymatgen
data_AlTeO3
_symmetry_space_group_name_H-M   'P 1'
_cell_length_a   3.75212135
_cell_length_b   3.75212135
_cell_length_c   3.88999034
_cell_angle_alpha   90.00000000
_cell_angle_beta   90.00000000
_cell_angle_gamma   90.00000000
_symmetry_Int_Tables_number   1
_chemical_formula_structural   AlTeO3
_chemical_formula_sum   'Al1 Te1 O3'
_cell_volume   54.76489694
_cell_formula_units_Z   1
loop_
 _symmetry_equiv_pos_site_id
 _symmetry_equiv_pos_as_xyz
  1  'x, y, z'
loop_
 _atom_site_type_symbol
 _atom_site_label
 _atom_site_symmetry_multiplicity
 _atom_site_fract_x
 _atom_site_fract_y
 _atom_site_fract_z
 _atom_site_occupancy
  Al  Al0  1  0.49999982  0.49999982  0.56312479  1
  O  O1  1  0.49999982  0.49999982  0.09379201  1
  O  O2  1  0.49999982  0.00000000  0.63005041  1
  O  O3  1  0.00000000  0.49999982  0.63005041  1
  Te  Te4  1  0.00000000  0.00000000  0.98298187  1
