# generated using pymatgen
data_AgPbO3
_symmetry_space_group_name_H-M   'P 1'
_cell_length_a   5.51953209
_cell_length_b   5.78708437
_cell_length_c   8.32296541
_cell_angle_alpha   90.00000000
_cell_angle_beta   90.00000000
_cell_angle_gamma   90.00000000
_symmetry_Int_Tables_number   1
_chemical_formula_structural   AgPbO3
_chemical_formula_sum   'Ag4 Pb4 O12'
_cell_volume   265.85214350
_cell_formula_units_Z   4
loop_
 _symmetry_equiv_pos_site_id
 _symmetry_equiv_pos_as_xyz
  1  'x, y, z'
loop_
 _atom_site_type_symbol
 _atom_site_label
 _atom_site_symmetry_multiplicity
 _atom_site_fract_x
 _atom_site_fract_y
 _atom_site_fract_z
 _atom_site_occupancy
  Ag  Ag0  1  0.49999890  0.00000000  0.00000000  1
  Ag  Ag1  1  0.00000000  0.49999962  0.00000000  1
  Ag  Ag2  1  0.49999890  0.00000000  0.49999968  1
  Ag  Ag3  1  0.00000000  0.49999962  0.49999968  1
  O  O4  1  0.69134665  0.31767119  0.07807434  1
  O  O5  1  0.80865369  0.81767082  0.07807434  1
  O  O6  1  0.14743641  0.41738289  0.24999984  1
  O  O7  1  0.35256431  0.91738424  0.24999984  1
  O  O8  1  0.69134665  0.31767119  0.42192654  1
  O  O9  1  0.80865369  0.81767082  0.42192654  1
  O  O10  1  0.19134774  0.18232843  0.57807401  1
  O  O11  1  0.30865297  0.68232978  0.57807401  1
  O  O12  1  0.64743713  0.08261673  0.75000071  1
  O  O13  1  0.85256321  0.58261635  0.75000071  1
  O  O14  1  0.19134774  0.18232843  0.92192622  1
  O  O15  1  0.30865297  0.68232978  0.92192622  1
  Pb  Pb16  1  0.97346295  0.06525911  0.24999984  1
  Pb  Pb17  1  0.52653739  0.56525874  0.24999984  1
  Pb  Pb18  1  0.47346405  0.43474051  0.75000071  1
  Pb  Pb19  1  0.02653848  0.93474013  0.75000071  1
