# generated using pymatgen
data_AgPbO3
_symmetry_space_group_name_H-M   'P 1'
_cell_length_a   5.48442354
_cell_length_b   5.80910194
_cell_length_c   8.38237685
_cell_angle_alpha   90.00000000
_cell_angle_beta   90.00000000
_cell_angle_gamma   90.00000000
_symmetry_Int_Tables_number   1
_chemical_formula_structural   AgPbO3
_chemical_formula_sum   'Ag4 Pb4 O12'
_cell_volume   267.05896752
_cell_formula_units_Z   4
loop_
 _symmetry_equiv_pos_site_id
 _symmetry_equiv_pos_as_xyz
  1  'x, y, z'
loop_
 _atom_site_type_symbol
 _atom_site_label
 _atom_site_symmetry_multiplicity
 _atom_site_fract_x
 _atom_site_fract_y
 _atom_site_fract_z
 _atom_site_occupancy
  Ag  Ag0  1  0.98528860  0.07541958  0.24999950  1
  Ag  Ag1  1  0.51471408  0.57541941  0.24999950  1
  Ag  Ag2  1  0.48528710  0.42457854  0.74999969  1
  Ag  Ag3  1  0.01471258  0.92458009  0.74999969  1
  O  O4  1  0.69320503  0.29783261  0.08630130  1
  O  O5  1  0.80679400  0.79783244  0.08630130  1
  O  O6  1  0.16114729  0.40951769  0.24999950  1
  O  O7  1  0.33885421  0.90951752  0.24999950  1
  O  O8  1  0.69320503  0.29783261  0.41369889  1
  O  O9  1  0.80679400  0.79783244  0.41369889  1
  O  O10  1  0.19320718  0.20216722  0.58630149  1
  O  O11  1  0.30679432  0.70216533  0.58630149  1
  O  O12  1  0.66114697  0.09048214  0.74999969  1
  O  O13  1  0.83885206  0.59048198  0.74999969  1
  O  O14  1  0.19320718  0.20216722  0.91369908  1
  O  O15  1  0.30679432  0.70216533  0.91369908  1
  Pb  Pb16  1  0.49999968  0.00000000  0.00000000  1
  Pb  Pb17  1  0.00000000  0.49999983  0.00000000  1
  Pb  Pb18  1  0.49999968  0.00000000  0.50000019  1
  Pb  Pb19  1  0.00000000  0.49999983  0.50000019  1
