# generated using pymatgen
data_LiTbO3
_symmetry_space_group_name_H-M   'P 1'
_cell_length_a   4.99493845
_cell_length_b   5.78012646
_cell_length_c   7.26465126
_cell_angle_alpha   90.00000000
_cell_angle_beta   90.00000000
_cell_angle_gamma   90.00000000
_symmetry_Int_Tables_number   1
_chemical_formula_structural   LiTbO3
_chemical_formula_sum   'Li4 Tb4 O12'
_cell_volume   209.74047719
_cell_formula_units_Z   4
loop_
 _symmetry_equiv_pos_site_id
 _symmetry_equiv_pos_as_xyz
  1  'x, y, z'
loop_
 _atom_site_type_symbol
 _atom_site_label
 _atom_site_symmetry_multiplicity
 _atom_site_fract_x
 _atom_site_fract_y
 _atom_site_fract_z
 _atom_site_occupancy
  Li  Li0  1  0.50000015  0.00000000  0.00000000  1
  Li  Li1  1  0.00000000  0.49999944  0.00000000  1
  Li  Li2  1  0.50000015  0.00000000  0.50000060  1
  Li  Li3  1  0.00000000  0.49999944  0.50000060  1
  O  O4  1  0.66134348  0.30235498  0.05096322  1
  O  O5  1  0.83865698  0.80235442  0.05096322  1
  O  O6  1  0.40941245  0.00807076  0.24999961  1
  O  O7  1  0.09058770  0.50807193  0.24999961  1
  O  O8  1  0.66134348  0.30235498  0.44903738  1
  O  O9  1  0.83865698  0.80235442  0.44903738  1
  O  O10  1  0.16134533  0.19764446  0.55096382  1
  O  O11  1  0.33865482  0.69764564  0.55096382  1
  O  O12  1  0.90941261  0.49192868  0.75000021  1
  O  O13  1  0.59058786  0.99192813  0.75000021  1
  O  O14  1  0.16134533  0.19764446  0.94903661  1
  O  O15  1  0.33865482  0.69764564  0.94903661  1
  Tb  Tb16  1  0.96136920  0.10676237  0.24999961  1
  Tb  Tb17  1  0.53863126  0.60676181  0.24999961  1
  Tb  Tb18  1  0.46137105  0.39323880  0.75000021  1
  Tb  Tb19  1  0.03862910  0.89323824  0.75000021  1
