# generated using pymatgen
data_AcAgO3
_symmetry_space_group_name_H-M   'P 1'
_cell_length_a   5.77939025
_cell_length_b   6.07738205
_cell_length_c   8.24822645
_cell_angle_alpha   90.00000000
_cell_angle_beta   90.00000000
_cell_angle_gamma   90.00000000
_symmetry_Int_Tables_number   1
_chemical_formula_structural   AcAgO3
_chemical_formula_sum   'Ac4 Ag4 O12'
_cell_volume   289.70709821
_cell_formula_units_Z   4
loop_
 _symmetry_equiv_pos_site_id
 _symmetry_equiv_pos_as_xyz
  1  'x, y, z'
loop_
 _atom_site_type_symbol
 _atom_site_label
 _atom_site_symmetry_multiplicity
 _atom_site_fract_x
 _atom_site_fract_y
 _atom_site_fract_z
 _atom_site_occupancy
  Ac  Ac0  1  0.98559532  0.06140308  0.25000041  1
  Ac  Ac1  1  0.51440548  0.56140456  0.25000041  1
  Ac  Ac2  1  0.48559448  0.43859675  0.75000002  1
  Ac  Ac3  1  0.01440463  0.93859658  0.75000002  1
  Ag  Ag4  1  0.50000084  0.00000000  0.00000000  1
  Ag  Ag5  1  0.00000000  0.49999983  0.00000000  1
  Ag  Ag6  1  0.50000084  0.00000000  0.49999961  1
  Ag  Ag7  1  0.00000000  0.49999983  0.49999961  1
  O  O8  1  0.70296862  0.29996798  0.04814853  1
  O  O9  1  0.79703218  0.79996781  0.04814853  1
  O  O10  1  0.09188167  0.47173437  0.25000041  1
  O  O11  1  0.40811745  0.97173420  0.25000041  1
  O  O12  1  0.70296862  0.29996798  0.45185108  1
  O  O13  1  0.79703218  0.79996781  0.45185108  1
  O  O14  1  0.20296778  0.20003350  0.54814814  1
  O  O15  1  0.29703133  0.70003333  0.54814814  1
  O  O16  1  0.59188251  0.02826711  0.75000002  1
  O  O17  1  0.90811829  0.52826694  0.75000002  1
  O  O18  1  0.20296778  0.20003350  0.95185190  1
  O  O19  1  0.29703133  0.70003333  0.95185190  1
