# generated using pymatgen
data_TlAgO3
_symmetry_space_group_name_H-M   'P 1'
_cell_length_a   5.54192664
_cell_length_b   5.72825331
_cell_length_c   8.04272401
_cell_angle_alpha   90.00000000
_cell_angle_beta   90.00000000
_cell_angle_gamma   90.00000000
_symmetry_Int_Tables_number   1
_chemical_formula_structural   TlAgO3
_chemical_formula_sum   'Tl4 Ag4 O12'
_cell_volume   255.32077452
_cell_formula_units_Z   4
loop_
 _symmetry_equiv_pos_site_id
 _symmetry_equiv_pos_as_xyz
  1  'x, y, z'
loop_
 _atom_site_type_symbol
 _atom_site_label
 _atom_site_symmetry_multiplicity
 _atom_site_fract_x
 _atom_site_fract_y
 _atom_site_fract_z
 _atom_site_occupancy
  Ag  Ag0  1  0.49999940  0.00000000  0.00000000  1
  Ag  Ag1  1  0.00000000  0.50000058  0.00000000  1
  Ag  Ag2  1  0.49999940  0.00000000  0.49999975  1
  Ag  Ag3  1  0.00000000  0.50000058  0.49999975  1
  O  O4  1  0.69202107  0.30893012  0.06862600  1
  O  O5  1  0.80797894  0.80893071  0.06862600  1
  O  O6  1  0.12673030  0.42437194  0.24999988  1
  O  O7  1  0.37326911  0.92437078  0.24999988  1
  O  O8  1  0.69202107  0.30893012  0.43137375  1
  O  O9  1  0.80797894  0.80893071  0.43137375  1
  O  O10  1  0.19202167  0.19107046  0.56862575  1
  O  O11  1  0.30797773  0.69106930  0.56862575  1
  O  O12  1  0.62673150  0.07562864  0.74999963  1
  O  O13  1  0.87326851  0.57562922  0.74999963  1
  O  O14  1  0.19202167  0.19107046  0.93137474  1
  O  O15  1  0.30797773  0.69106930  0.93137474  1
  Tl  Tl16  1  0.98066618  0.05696152  0.24999988  1
  Tl  Tl17  1  0.51933383  0.55696036  0.24999988  1
  Tl  Tl18  1  0.48066497  0.44303907  0.74999963  1
  Tl  Tl19  1  0.01933443  0.94303965  0.74999963  1
