# generated using pymatgen
data_GdFeO3
_symmetry_space_group_name_H-M   'P 1'
_cell_length_a   5.39494200
_cell_length_b   5.66608500
_cell_length_c   7.77632100
_cell_angle_alpha   90.00000000
_cell_angle_beta   90.00000000
_cell_angle_gamma   90.00000000
_symmetry_Int_Tables_number   1
_chemical_formula_structural   GdFeO3
_chemical_formula_sum   'Gd4 Fe4 O12'
_cell_volume   237.70813514
_cell_formula_units_Z   4
loop_
 _symmetry_equiv_pos_site_id
 _symmetry_equiv_pos_as_xyz
  1  'x, y, z'
loop_
 _atom_site_type_symbol
 _atom_site_label
 _atom_site_symmetry_multiplicity
 _atom_site_fract_x
 _atom_site_fract_y
 _atom_site_fract_z
 _atom_site_occupancy
  Gd  Gd0  1  0.98342600  0.06579900  0.25000000  1
  Gd  Gd1  1  0.48342600  0.43420100  0.75000000  1
  Gd  Gd2  1  0.51657400  0.56579900  0.25000000  1
  Gd  Gd3  1  0.01657400  0.93420100  0.75000000  1
  Fe  Fe4  1  0.00000000  0.50000000  0.00000000  1
  Fe  Fe5  1  0.50000000  0.00000000  0.50000000  1
  Fe  Fe6  1  0.50000000  0.00000000  0.00000000  1
  Fe  Fe7  1  0.00000000  0.50000000  0.50000000  1
  O  O8  1  0.30658600  0.69541300  0.55583600  1
  O  O9  1  0.39273100  0.96504700  0.25000000  1
  O  O10  1  0.19341400  0.19541300  0.94416400  1
  O  O11  1  0.69341400  0.30458700  0.05583600  1
  O  O12  1  0.69341400  0.30458700  0.44416400  1
  O  O13  1  0.80658600  0.80458700  0.44416400  1
  O  O14  1  0.30658600  0.69541300  0.94416400  1
  O  O15  1  0.19341400  0.19541300  0.55583600  1
  O  O16  1  0.89273100  0.53495300  0.75000000  1
  O  O17  1  0.60726900  0.03495300  0.75000000  1
  O  O18  1  0.80658600  0.80458700  0.05583600  1
  O  O19  1  0.10726900  0.46504700  0.25000000  1
