# generated using pymatgen
data_CaGaO3
_symmetry_space_group_name_H-M   'P 1'
_cell_length_a   3.82085309
_cell_length_b   3.82085309
_cell_length_c   3.83661718
_cell_angle_alpha   90.00000000
_cell_angle_beta   90.00000000
_cell_angle_gamma   90.00000000
_symmetry_Int_Tables_number   1
_chemical_formula_structural   CaGaO3
_chemical_formula_sum   'Ca1 Ga1 O3'
_cell_volume   56.01046075
_cell_formula_units_Z   1
loop_
 _symmetry_equiv_pos_site_id
 _symmetry_equiv_pos_as_xyz
  1  'x, y, z'
loop_
 _atom_site_type_symbol
 _atom_site_label
 _atom_site_symmetry_multiplicity
 _atom_site_fract_x
 _atom_site_fract_y
 _atom_site_fract_z
 _atom_site_occupancy
  Ca  Ca0  1  0.00000000  0.00000000  0.07406785  1
  Ga  Ga1  1  0.49999829  0.49999829  0.57930982  1
  O  O2  1  0.49999829  0.49999829  0.08040416  1
  O  O3  1  0.49999829  0.00000000  0.58310743  1
  O  O4  1  0.00000000  0.49999829  0.58310743  1
