# generated using pymatgen
data_TaZnO3
_symmetry_space_group_name_H-M   'P 1'
_cell_length_a   5.48876446
_cell_length_b   5.28020515
_cell_length_c   7.57128075
_cell_angle_alpha   90.00000000
_cell_angle_beta   90.00000000
_cell_angle_gamma   90.00000000
_symmetry_Int_Tables_number   1
_chemical_formula_structural   TaZnO3
_chemical_formula_sum   'Ta4 Zn4 O12'
_cell_volume   219.42936214
_cell_formula_units_Z   4
loop_
 _symmetry_equiv_pos_site_id
 _symmetry_equiv_pos_as_xyz
  1  'x, y, z'
loop_
 _atom_site_type_symbol
 _atom_site_label
 _atom_site_symmetry_multiplicity
 _atom_site_fract_x
 _atom_site_fract_y
 _atom_site_fract_z
 _atom_site_occupancy
  O  O0  1  0.68756458  0.31544418  0.06768340  1
  O  O1  1  0.81243421  0.81544370  0.06768340  1
  O  O2  1  0.13980378  0.49561900  0.24999998  1
  O  O3  1  0.36019582  0.99562041  0.24999998  1
  O  O4  1  0.68756458  0.31544418  0.43231655  1
  O  O5  1  0.81243421  0.81544370  0.43231655  1
  O  O6  1  0.18756498  0.18455533  0.56768335  1
  O  O7  1  0.31243461  0.68455674  0.56768335  1
  O  O8  1  0.63980337  0.00438051  0.74999993  1
  O  O9  1  0.86019723  0.50438002  0.74999993  1
  O  O10  1  0.18756498  0.18455533  0.93231650  1
  O  O11  1  0.31243461  0.68455674  0.93231650  1
  Ta  Ta12  1  0.49999959  0.00000000  0.00000000  1
  Ta  Ta13  1  0.00000000  0.50000141  0.00000000  1
  Ta  Ta14  1  0.49999959  0.00000000  0.49999995  1
  Ta  Ta15  1  0.00000000  0.50000141  0.49999995  1
  Zn  Zn16  1  0.99206844  0.04148513  0.24999998  1
  Zn  Zn17  1  0.50793034  0.54148275  0.24999998  1
  Zn  Zn18  1  0.49207067  0.45851628  0.74999993  1
  Zn  Zn19  1  0.00793075  0.95851579  0.74999993  1
