# generated using pymatgen
data_HoAlO3
_symmetry_space_group_name_H-M   'P 1'
_cell_length_a   5.19239200
_cell_length_b   5.37900000
_cell_length_c   7.42251400
_cell_angle_alpha   90.00000000
_cell_angle_beta   90.00000000
_cell_angle_gamma   90.00000000
_symmetry_Int_Tables_number   1
_chemical_formula_structural   HoAlO3
_chemical_formula_sum   'Ho4 Al4 O12'
_cell_volume   207.30989984
_cell_formula_units_Z   4
loop_
 _symmetry_equiv_pos_site_id
 _symmetry_equiv_pos_as_xyz
  1  'x, y, z'
loop_
 _atom_site_type_symbol
 _atom_site_label
 _atom_site_symmetry_multiplicity
 _atom_site_fract_x
 _atom_site_fract_y
 _atom_site_fract_z
 _atom_site_occupancy
  Ho  Ho0  1  0.01419100  0.94258400  0.75000000  1
  Ho  Ho1  1  0.51419100  0.55741600  0.25000000  1
  Ho  Ho2  1  0.48580900  0.44258400  0.75000000  1
  Ho  Ho3  1  0.98580900  0.05741600  0.25000000  1
  Al  Al4  1  0.50000000  0.00000000  0.50000000  1
  Al  Al5  1  0.00000000  0.50000000  0.50000000  1
  Al  Al6  1  0.00000000  0.50000000  0.00000000  1
  Al  Al7  1  0.50000000  0.00000000  0.00000000  1
  O  O8  1  0.70405000  0.29567100  0.45265300  1
  O  O9  1  0.20405000  0.20432900  0.54734700  1
  O  O10  1  0.79595000  0.79567100  0.04734700  1
  O  O11  1  0.29595000  0.70432900  0.95265300  1
  O  O12  1  0.29595000  0.70432900  0.54734700  1
  O  O13  1  0.79595000  0.79567100  0.45265300  1
  O  O14  1  0.20405000  0.20432900  0.95265300  1
  O  O15  1  0.70405000  0.29567100  0.04734700  1
  O  O16  1  0.09013900  0.47487900  0.25000000  1
  O  O17  1  0.59013900  0.02512100  0.75000000  1
  O  O18  1  0.40986100  0.97487900  0.25000000  1
  O  O19  1  0.90986100  0.52512100  0.75000000  1
