# generated using pymatgen
data_NdZrO3
_symmetry_space_group_name_H-M   'P 1'
_cell_length_a   5.64290074
_cell_length_b   6.14443882
_cell_length_c   7.85755537
_cell_angle_alpha   90.00000000
_cell_angle_beta   90.00000000
_cell_angle_gamma   90.00000000
_symmetry_Int_Tables_number   1
_chemical_formula_structural   NdZrO3
_chemical_formula_sum   'Nd4 Zr4 O12'
_cell_volume   272.44076160
_cell_formula_units_Z   4
loop_
 _symmetry_equiv_pos_site_id
 _symmetry_equiv_pos_as_xyz
  1  'x, y, z'
loop_
 _atom_site_type_symbol
 _atom_site_label
 _atom_site_symmetry_multiplicity
 _atom_site_fract_x
 _atom_site_fract_y
 _atom_site_fract_z
 _atom_site_occupancy
  Nd  Nd0  1  0.97437652  0.07538361  0.25000015  1
  Nd  Nd1  1  0.52562328  0.57538534  0.25000015  1
  Nd  Nd2  1  0.47437836  0.42461486  0.75000044  1
  Nd  Nd3  1  0.02562335  0.92461495  0.75000044  1
  O  O4  1  0.68727950  0.30307894  0.05427006  1
  O  O5  1  0.81272030  0.80307904  0.05427006  1
  O  O6  1  0.14381965  0.43646785  0.25000015  1
  O  O7  1  0.35618029  0.93646795  0.25000015  1
  O  O8  1  0.68727950  0.30307894  0.44573023  1
  O  O9  1  0.81272030  0.80307904  0.44573023  1
  O  O10  1  0.18727957  0.19692116  0.55427035  1
  O  O11  1  0.31272214  0.69692125  0.55427035  1
  O  O12  1  0.64381781  0.06353225  0.75000044  1
  O  O13  1  0.85618199  0.56353234  0.75000044  1
  O  O14  1  0.18727957  0.19692116  0.94572926  1
  O  O15  1  0.31272214  0.69692125  0.94572926  1
  Zr  Zr16  1  0.49999993  0.00000000  0.00000000  1
  Zr  Zr17  1  0.00000000  0.50000010  0.00000000  1
  Zr  Zr18  1  0.49999993  0.00000000  0.50000029  1
  Zr  Zr19  1  0.00000000  0.50000010  0.50000029  1
