# generated using pymatgen
data_NbInO3
_symmetry_space_group_name_H-M   'P 1'
_cell_length_a   5.62980748
_cell_length_b   5.74142778
_cell_length_c   8.04064072
_cell_angle_alpha   90.00000000
_cell_angle_beta   90.00000000
_cell_angle_gamma   90.00000000
_symmetry_Int_Tables_number   1
_chemical_formula_structural   NbInO3
_chemical_formula_sum   'Nb4 In4 O12'
_cell_volume   259.89869974
_cell_formula_units_Z   4
loop_
 _symmetry_equiv_pos_site_id
 _symmetry_equiv_pos_as_xyz
  1  'x, y, z'
loop_
 _atom_site_type_symbol
 _atom_site_label
 _atom_site_symmetry_multiplicity
 _atom_site_fract_x
 _atom_site_fract_y
 _atom_site_fract_z
 _atom_site_occupancy
  In  In0  1  0.98725578  0.05231974  0.24999998  1
  In  In1  1  0.51274578  0.55231906  0.24999998  1
  In  In2  1  0.48725467  0.44768133  0.74999993  1
  In  In3  1  0.01274466  0.94768065  0.74999993  1
  Nb  Nb4  1  0.49999934  0.00000000  0.00000000  1
  Nb  Nb5  1  0.00000000  0.49999932  0.00000000  1
  Nb  Nb6  1  0.49999934  0.00000000  0.49999995  1
  Nb  Nb7  1  0.00000000  0.49999932  0.49999995  1
  O  O8  1  0.69506462  0.30102443  0.05253935  1
  O  O9  1  0.80493694  0.80102375  0.05253935  1
  O  O10  1  0.10411191  0.47337180  0.24999998  1
  O  O11  1  0.39588920  0.97337112  0.24999998  1
  O  O12  1  0.69506462  0.30102443  0.44746061  1
  O  O13  1  0.80493694  0.80102375  0.44746061  1
  O  O14  1  0.19506351  0.19897664  0.55254054  1
  O  O15  1  0.30493583  0.69897596  0.55254054  1
  O  O16  1  0.60411124  0.02662752  0.74999993  1
  O  O17  1  0.89588854  0.52662859  0.74999993  1
  O  O18  1  0.19506351  0.19897664  0.94746056  1
  O  O19  1  0.30493583  0.69897596  0.94746056  1
