# generated using pymatgen
data_YMgO3
_symmetry_space_group_name_H-M   'P 1'
_cell_length_a   5.42269558
_cell_length_b   5.75749030
_cell_length_c   7.37077726
_cell_angle_alpha   90.00000000
_cell_angle_beta   90.00000000
_cell_angle_gamma   90.00000000
_symmetry_Int_Tables_number   1
_chemical_formula_structural   YMgO3
_chemical_formula_sum   'Y4 Mg4 O12'
_cell_volume   230.12390060
_cell_formula_units_Z   4
loop_
 _symmetry_equiv_pos_site_id
 _symmetry_equiv_pos_as_xyz
  1  'x, y, z'
loop_
 _atom_site_type_symbol
 _atom_site_label
 _atom_site_symmetry_multiplicity
 _atom_site_fract_x
 _atom_site_fract_y
 _atom_site_fract_z
 _atom_site_occupancy
  Mg  Mg0  1  0.50000041  0.00000000  0.00000000  1
  Mg  Mg1  1  0.00000000  0.49999911  0.00000000  1
  Mg  Mg2  1  0.50000041  0.00000000  0.50000019  1
  Mg  Mg3  1  0.00000000  0.49999911  0.50000019  1
  O  O4  1  0.69327698  0.30028188  0.06633629  1
  O  O5  1  0.80672425  0.80028272  0.06633629  1
  O  O6  1  0.13636760  0.44549272  0.24999941  1
  O  O7  1  0.36363280  0.94549182  0.24999941  1
  O  O8  1  0.69327698  0.30028188  0.43366254  1
  O  O9  1  0.80672425  0.80028272  0.43366254  1
  O  O10  1  0.19327657  0.19971723  0.56633647  1
  O  O11  1  0.30672384  0.69971633  0.56633647  1
  O  O12  1  0.63636801  0.05450639  0.74999960  1
  O  O13  1  0.86363321  0.55450723  0.74999960  1
  O  O14  1  0.19327657  0.19971723  0.93366273  1
  O  O15  1  0.30672384  0.69971633  0.93366273  1
  Y  Y16  1  0.97900019  0.07720725  0.24999941  1
  Y  Y17  1  0.52100103  0.57720809  0.24999941  1
  Y  Y18  1  0.47899978  0.42279359  0.74999960  1
  Y  Y19  1  0.02100063  0.92279270  0.74999960  1
