# generated using pymatgen
data_NaNpO3
_symmetry_space_group_name_H-M   'P 1'
_cell_length_a   5.65453896
_cell_length_b   5.93695070
_cell_length_c   8.20802873
_cell_angle_alpha   90.00000000
_cell_angle_beta   90.00000000
_cell_angle_gamma   90.00000000
_symmetry_Int_Tables_number   1
_chemical_formula_structural   NaNpO3
_chemical_formula_sum   'Na4 Np4 O12'
_cell_volume   275.54942640
_cell_formula_units_Z   4
loop_
 _symmetry_equiv_pos_site_id
 _symmetry_equiv_pos_as_xyz
  1  'x, y, z'
loop_
 _atom_site_type_symbol
 _atom_site_label
 _atom_site_symmetry_multiplicity
 _atom_site_fract_x
 _atom_site_fract_y
 _atom_site_fract_z
 _atom_site_occupancy
  Na  Na0  1  0.98997461  0.05076006  0.25000034  1
  Na  Na1  1  0.51002567  0.55076085  0.25000034  1
  Na  Na2  1  0.48997452  0.44923903  0.74999981  1
  Na  Na3  1  0.01002557  0.94923982  0.74999981  1
  Np  Np4  1  0.50000009  0.00000000  0.00000000  1
  Np  Np5  1  0.00000000  0.50000078  0.00000000  1
  Np  Np6  1  0.50000009  0.00000000  0.49999947  1
  Np  Np7  1  0.00000000  0.50000078  0.49999947  1
  O  O8  1  0.70098199  0.31507589  0.05832582  1
  O  O9  1  0.79901828  0.81507667  0.05832582  1
  O  O10  1  0.11235222  0.45784109  0.25000034  1
  O  O11  1  0.38764610  0.95784188  0.25000034  1
  O  O12  1  0.70098199  0.31507589  0.44167487  1
  O  O13  1  0.79901828  0.81507667  0.44167487  1
  O  O14  1  0.20098190  0.18492321  0.55832529  1
  O  O15  1  0.29901819  0.68492400  0.55832529  1
  O  O16  1  0.61235231  0.04215801  0.74999981  1
  O  O17  1  0.88764620  0.54215879  0.74999981  1
  O  O18  1  0.20098190  0.18492321  0.94167434  1
  O  O19  1  0.29901819  0.68492400  0.94167434  1
