# generated using pymatgen
data_LiNbO3
_symmetry_space_group_name_H-M   'P 1'
_cell_length_a   5.16128815
_cell_length_b   5.39273831
_cell_length_c   7.50832815
_cell_angle_alpha   90.00000000
_cell_angle_beta   90.00000000
_cell_angle_gamma   90.00000000
_symmetry_Int_Tables_number   1
_chemical_formula_structural   LiNbO3
_chemical_formula_sum   'Li4 Nb4 O12'
_cell_volume   208.98287431
_cell_formula_units_Z   4
loop_
 _symmetry_equiv_pos_site_id
 _symmetry_equiv_pos_as_xyz
  1  'x, y, z'
loop_
 _atom_site_type_symbol
 _atom_site_label
 _atom_site_symmetry_multiplicity
 _atom_site_fract_x
 _atom_site_fract_y
 _atom_site_fract_z
 _atom_site_occupancy
  Li  Li0  1  0.99856273  0.03153315  0.24999973  1
  Li  Li1  1  0.50143684  0.53153330  0.24999973  1
  Li  Li2  1  0.49856352  0.46846701  0.75000052  1
  Li  Li3  1  0.00143763  0.96846717  0.75000052  1
  Nb  Nb4  1  0.49999921  0.00000000  0.00000000  1
  Nb  Nb5  1  0.00000000  0.50000016  0.00000000  1
  Nb  Nb6  1  0.49999921  0.00000000  0.49999946  1
  Nb  Nb7  1  0.00000000  0.50000016  0.49999946  1
  O  O8  1  0.67777266  0.31583583  0.06423001  1
  O  O9  1  0.82222885  0.81583414  0.06423001  1
  O  O10  1  0.12440111  0.45451492  0.24999973  1
  O  O11  1  0.37560003  0.95451507  0.24999973  1
  O  O12  1  0.67777266  0.31583583  0.43577078  1
  O  O13  1  0.82222885  0.81583414  0.43577078  1
  O  O14  1  0.17777151  0.18416432  0.56422947  1
  O  O15  1  0.32222770  0.68416448  0.56422947  1
  O  O16  1  0.62440032  0.04548524  0.75000052  1
  O  O17  1  0.87559924  0.54548540  0.75000052  1
  O  O18  1  0.17777151  0.18416432  0.93577023  1
  O  O19  1  0.32222770  0.68416448  0.93577023  1
