# generated using pymatgen
data_RbThO3
_symmetry_space_group_name_H-M   'P 1'
_cell_length_a   6.45018254
_cell_length_b   6.45239700
_cell_length_c   9.11483534
_cell_angle_alpha   90.00000000
_cell_angle_beta   90.00000000
_cell_angle_gamma   90.00000000
_symmetry_Int_Tables_number   1
_chemical_formula_structural   RbThO3
_chemical_formula_sum   'Rb4 Th4 O12'
_cell_volume   379.35159458
_cell_formula_units_Z   4
loop_
 _symmetry_equiv_pos_site_id
 _symmetry_equiv_pos_as_xyz
  1  'x, y, z'
loop_
 _atom_site_type_symbol
 _atom_site_label
 _atom_site_symmetry_multiplicity
 _atom_site_fract_x
 _atom_site_fract_y
 _atom_site_fract_z
 _atom_site_occupancy
  O  O0  1  0.74255728  0.25746866  0.00665289  1
  O  O1  1  0.75744213  0.75746889  0.00665289  1
  O  O2  1  0.48649011  0.00000000  0.25000013  1
  O  O3  1  0.01350970  0.49998473  0.25000013  1
  O  O4  1  0.74255728  0.25746866  0.49334737  1
  O  O5  1  0.75744213  0.75746889  0.49334737  1
  O  O6  1  0.24255748  0.24253002  0.50665315  1
  O  O7  1  0.25744078  0.74253026  0.50665315  1
  O  O8  1  0.51351105  0.00000000  0.75000038  1
  O  O9  1  0.98648836  0.50001573  0.75000038  1
  O  O10  1  0.24255748  0.24253002  0.99334762  1
  O  O11  1  0.25744078  0.74253026  0.99334762  1
  Rb  Rb12  1  0.00052867  0.00000000  0.25000013  1
  Rb  Rb13  1  0.49947114  0.49990569  0.25000013  1
  Rb  Rb14  1  0.99947094  0.00000000  0.75000038  1
  Rb  Rb15  1  0.50053002  0.50009477  0.75000038  1
  Th  Th16  1  0.49999980  0.00000000  0.00000000  1
  Th  Th17  1  0.00000000  0.50000023  0.00000000  1
  Th  Th18  1  0.49999980  0.00000000  0.50000026  1
  Th  Th19  1  0.00000000  0.50000023  0.50000026  1
