# generated using pymatgen
data_PuTaO3
_symmetry_space_group_name_H-M   'P 1'
_cell_length_a   5.68250978
_cell_length_b   5.67748033
_cell_length_c   8.13748540
_cell_angle_alpha   90.00000000
_cell_angle_beta   90.00000000
_cell_angle_gamma   90.00000000
_symmetry_Int_Tables_number   1
_chemical_formula_structural   PuTaO3
_chemical_formula_sum   'Pu4 Ta4 O12'
_cell_volume   262.53430029
_cell_formula_units_Z   4
loop_
 _symmetry_equiv_pos_site_id
 _symmetry_equiv_pos_as_xyz
  1  'x, y, z'
loop_
 _atom_site_type_symbol
 _atom_site_label
 _atom_site_symmetry_multiplicity
 _atom_site_fract_x
 _atom_site_fract_y
 _atom_site_fract_z
 _atom_site_occupancy
  O  O0  1  0.71387295  0.28580108  0.01320310  1
  O  O1  1  0.78612799  0.78579929  0.01320310  1
  O  O2  1  0.02707958  0.49807658  0.24999983  1
  O  O3  1  0.47291956  0.99807661  0.24999983  1
  O  O4  1  0.71387295  0.28580108  0.48679657  1
  O  O5  1  0.78612799  0.78579929  0.48679657  1
  O  O6  1  0.21387205  0.21419889  0.51320399  1
  O  O7  1  0.28612885  0.71420062  0.51320399  1
  O  O8  1  0.52708048  0.00192339  0.74999950  1
  O  O9  1  0.97291870  0.50192160  0.74999950  1
  O  O10  1  0.21387205  0.21419889  0.98679624  1
  O  O11  1  0.28612885  0.71420062  0.98679624  1
  Pu  Pu12  1  0.00052266  0.01667113  0.24999983  1
  Pu  Pu13  1  0.49947824  0.51667110  0.24999983  1
  Pu  Pu14  1  0.50052180  0.48332884  0.74999950  1
  Pu  Pu15  1  0.99947734  0.98332705  0.74999950  1
  Ta  Ta16  1  0.50000090  0.00000000  0.00000000  1
  Ta  Ta17  1  0.00000000  0.50000173  0.00000000  1
  Ta  Ta18  1  0.50000090  0.00000000  0.49999967  1
  Ta  Ta19  1  0.00000000  0.50000173  0.49999967  1
