# generated using pymatgen
data_KTiO3
_symmetry_space_group_name_H-M   'P 1'
_cell_length_a   5.57627011
_cell_length_b   5.57627011
_cell_length_c   5.57627066
_cell_angle_alpha   59.97580681
_cell_angle_beta   59.97580681
_cell_angle_gamma   59.97580034
_symmetry_Int_Tables_number   1
_chemical_formula_structural   KTiO3
_chemical_formula_sum   'K2 Ti2 O6'
_cell_volume   122.54006596
_cell_formula_units_Z   2
loop_
 _symmetry_equiv_pos_site_id
 _symmetry_equiv_pos_as_xyz
  1  'x, y, z'
loop_
 _atom_site_type_symbol
 _atom_site_label
 _atom_site_symmetry_multiplicity
 _atom_site_fract_x
 _atom_site_fract_y
 _atom_site_fract_z
 _atom_site_occupancy
  K  K0  1  0.25000014  0.25000014  0.25000006  1
  K  K1  1  0.75000041  0.75000041  0.75000018  1
  O  O2  1  0.25021045  0.74999963  0.24978828  1
  O  O3  1  0.75020927  0.74978948  0.24999982  1
  O  O4  1  0.75000106  0.24978850  0.25020880  1
  O  O5  1  0.24999802  0.75021058  0.74978998  1
  O  O6  1  0.24978981  0.25020960  0.74999895  1
  O  O7  1  0.74978863  0.24999945  0.75021049  1
  Ti  Ti8  1  0.00000000  0.00000000  0.00000000  1
  Ti  Ti9  1  0.49999954  0.49999954  0.49999939  1
