# generated using pymatgen
data_TlPdO3
_symmetry_space_group_name_H-M   'P 1'
_cell_length_a   3.92709024
_cell_length_b   3.92709024
_cell_length_c   4.14906409
_cell_angle_alpha   90.00000000
_cell_angle_beta   90.00000000
_cell_angle_gamma   90.00000000
_symmetry_Int_Tables_number   1
_chemical_formula_structural   TlPdO3
_chemical_formula_sum   'Tl1 Pd1 O3'
_cell_volume   63.98702297
_cell_formula_units_Z   1
loop_
 _symmetry_equiv_pos_site_id
 _symmetry_equiv_pos_as_xyz
  1  'x, y, z'
loop_
 _atom_site_type_symbol
 _atom_site_label
 _atom_site_symmetry_multiplicity
 _atom_site_fract_x
 _atom_site_fract_y
 _atom_site_fract_z
 _atom_site_occupancy
  O  O0  1  0.50000124  0.50000124  0.07594002  1
  O  O1  1  0.50000124  0.00000000  0.63391886  1
  O  O2  1  0.00000000  0.50000124  0.63391886  1
  Pd  Pd3  1  0.50000124  0.50000124  0.56056979  1
  Tl  Tl4  1  0.00000000  0.00000000  0.99564962  1
