# generated using pymatgen
data_CdAuO3
_symmetry_space_group_name_H-M   'P 1'
_cell_length_a   5.45353587
_cell_length_b   5.63130438
_cell_length_c   8.03523419
_cell_angle_alpha   90.00000000
_cell_angle_beta   90.00000000
_cell_angle_gamma   90.00000000
_symmetry_Int_Tables_number   1
_chemical_formula_structural   CdAuO3
_chemical_formula_sum   'Cd4 Au4 O12'
_cell_volume   246.76622343
_cell_formula_units_Z   4
loop_
 _symmetry_equiv_pos_site_id
 _symmetry_equiv_pos_as_xyz
  1  'x, y, z'
loop_
 _atom_site_type_symbol
 _atom_site_label
 _atom_site_symmetry_multiplicity
 _atom_site_fract_x
 _atom_site_fract_y
 _atom_site_fract_z
 _atom_site_occupancy
  Au  Au0  1  0.49999855  0.00000000  0.00000000  1
  Au  Au1  1  0.00000000  0.49999961  0.00000000  1
  Au  Au2  1  0.49999855  0.00000000  0.50000036  1
  Au  Au3  1  0.00000000  0.49999961  0.50000036  1
  Cd  Cd4  1  0.98444388  0.05415442  0.25000018  1
  Cd  Cd5  1  0.51555542  0.55415403  0.25000018  1
  Cd  Cd6  1  0.48444533  0.44584697  0.74999930  1
  Cd  Cd7  1  0.01555505  0.94584658  0.74999930  1
  O  O8  1  0.69998073  0.29574498  0.07370663  1
  O  O9  1  0.80001858  0.79574459  0.07370663  1
  O  O10  1  0.12242699  0.43974714  0.25000018  1
  O  O11  1  0.37757339  0.93974853  0.25000018  1
  O  O12  1  0.69998073  0.29574498  0.42629498  1
  O  O13  1  0.80001858  0.79574459  0.42629498  1
  O  O14  1  0.19998218  0.20425641  0.57370699  1
  O  O15  1  0.30002003  0.70425602  0.57370699  1
  O  O16  1  0.62242737  0.06025247  0.74999930  1
  O  O17  1  0.87757376  0.56025386  0.74999930  1
  O  O18  1  0.19998218  0.20425641  0.92629410  1
  O  O19  1  0.30002003  0.70425602  0.92629410  1
