# generated using pymatgen
data_NbAgO3
_symmetry_space_group_name_H-M   'P 1'
_cell_length_a   5.63359769
_cell_length_b   5.63359769
_cell_length_c   8.01232000
_cell_angle_alpha   90.00000000
_cell_angle_beta   90.00000000
_cell_angle_gamma   90.40294273
_symmetry_Int_Tables_number   1
_chemical_formula_structural   NbAgO3
_chemical_formula_sum   'Nb4 Ag4 O12'
_cell_volume   254.28409993
_cell_formula_units_Z   4
loop_
 _symmetry_equiv_pos_site_id
 _symmetry_equiv_pos_as_xyz
  1  'x, y, z'
loop_
 _atom_site_type_symbol
 _atom_site_label
 _atom_site_symmetry_multiplicity
 _atom_site_fract_x
 _atom_site_fract_y
 _atom_site_fract_z
 _atom_site_occupancy
  Nb  Nb0  1  0.50000000  0.00000000  0.00000000  1
  Nb  Nb1  1  0.00000000  0.50000000  0.00000000  1
  Nb  Nb2  1  0.50000000  0.00000000  0.50000000  1
  Nb  Nb3  1  0.00000000  0.50000000  0.50000000  1
  Ag  Ag4  1  0.00443300  0.99556700  0.75000000  1
  Ag  Ag5  1  0.99556700  0.00443300  0.25000000  1
  Ag  Ag6  1  0.50346300  0.49653700  0.75000000  1
  Ag  Ag7  1  0.49653700  0.50346300  0.25000000  1
  O  O8  1  0.70609700  0.70609700  0.00000000  1
  O  O9  1  0.70609700  0.70609700  0.50000000  1
  O  O10  1  0.29390300  0.29390300  0.00000000  1
  O  O11  1  0.29390300  0.29390300  0.50000000  1
  O  O12  1  0.79187200  0.20812800  0.96930300  1
  O  O13  1  0.20812800  0.79187200  0.03069700  1
  O  O14  1  0.79187200  0.20812800  0.53069700  1
  O  O15  1  0.20812800  0.79187200  0.46930300  1
  O  O16  1  0.46105400  0.97718900  0.75000000  1
  O  O17  1  0.97718900  0.46105400  0.25000000  1
  O  O18  1  0.53894600  0.02281100  0.25000000  1
  O  O19  1  0.02281100  0.53894600  0.75000000  1
