# generated using pymatgen
data_TbPbO3
_symmetry_space_group_name_H-M   'P 1'
_cell_length_a   5.82245458
_cell_length_b   6.06761547
_cell_length_c   8.50263953
_cell_angle_alpha   90.00000000
_cell_angle_beta   90.00000000
_cell_angle_gamma   90.00000000
_symmetry_Int_Tables_number   1
_chemical_formula_structural   TbPbO3
_chemical_formula_sum   'Tb4 Pb4 O12'
_cell_volume   300.38478160
_cell_formula_units_Z   4
loop_
 _symmetry_equiv_pos_site_id
 _symmetry_equiv_pos_as_xyz
  1  'x, y, z'
loop_
 _atom_site_type_symbol
 _atom_site_label
 _atom_site_symmetry_multiplicity
 _atom_site_fract_x
 _atom_site_fract_y
 _atom_site_fract_z
 _atom_site_occupancy
  O  O0  1  0.67371586  0.31925227  0.07210820  1
  O  O1  1  0.82628382  0.81925099  0.07210820  1
  O  O2  1  0.14613424  0.42079957  0.25000001  1
  O  O3  1  0.35386450  0.92079995  0.25000001  1
  O  O4  1  0.67371586  0.31925227  0.42789183  1
  O  O5  1  0.82628382  0.81925099  0.42789183  1
  O  O6  1  0.17371540  0.18074811  0.57210822  1
  O  O7  1  0.32628507  0.68074848  0.57210822  1
  O  O8  1  0.64613471  0.07920080  0.75000004  1
  O  O9  1  0.85386497  0.57920117  0.75000004  1
  O  O10  1  0.17371540  0.18074811  0.92789186  1
  O  O11  1  0.32628507  0.68074848  0.92789186  1
  Pb  Pb12  1  0.98882867  0.04330532  0.25000001  1
  Pb  Pb13  1  0.51117101  0.54330569  0.25000001  1
  Pb  Pb14  1  0.48882820  0.45669506  0.75000004  1
  Pb  Pb15  1  0.01117226  0.95669378  0.75000004  1
  Tb  Tb16  1  0.50000047  0.00000000  0.00000000  1
  Tb  Tb17  1  0.00000000  0.50000037  0.00000000  1
  Tb  Tb18  1  0.50000047  0.00000000  0.50000003  1
  Tb  Tb19  1  0.00000000  0.50000037  0.50000003  1
