# generated using pymatgen
data_NaThO3
_symmetry_space_group_name_H-M   'P 1'
_cell_length_a   5.96276933
_cell_length_b   6.18236988
_cell_length_c   8.53223038
_cell_angle_alpha   90.00000000
_cell_angle_beta   90.00000000
_cell_angle_gamma   90.00000000
_symmetry_Int_Tables_number   1
_chemical_formula_structural   NaThO3
_chemical_formula_sum   'Na4 Th4 O12'
_cell_volume   314.53252912
_cell_formula_units_Z   4
loop_
 _symmetry_equiv_pos_site_id
 _symmetry_equiv_pos_as_xyz
  1  'x, y, z'
loop_
 _atom_site_type_symbol
 _atom_site_label
 _atom_site_symmetry_multiplicity
 _atom_site_fract_x
 _atom_site_fract_y
 _atom_site_fract_z
 _atom_site_occupancy
  Na  Na0  1  0.99367419  0.04336363  0.25000028  1
  Na  Na1  1  0.50632681  0.54336283  0.25000028  1
  Na  Na2  1  0.49367330  0.45663719  0.74999967  1
  Na  Na3  1  0.00632592  0.95663639  0.74999967  1
  O  O4  1  0.68343076  0.31070286  0.06513537  1
  O  O5  1  0.81657024  0.81070206  0.06513537  1
  O  O6  1  0.12658548  0.43449519  0.25000028  1
  O  O7  1  0.37341542  0.93449440  0.25000028  1
  O  O8  1  0.68343076  0.31070286  0.43486519  1
  O  O9  1  0.81657024  0.81070206  0.43486519  1
  O  O10  1  0.18342987  0.18929796  0.56513476  1
  O  O11  1  0.31656935  0.68929716  0.56513476  1
  O  O12  1  0.62658469  0.06550562  0.74999967  1
  O  O13  1  0.87341463  0.56550483  0.74999967  1
  O  O14  1  0.18342987  0.18929796  0.93486458  1
  O  O15  1  0.31656935  0.68929716  0.93486458  1
  Th  Th16  1  0.49999922  0.00000000  0.00000000  1
  Th  Th17  1  0.00000000  0.49999920  0.00000000  1
  Th  Th18  1  0.49999922  0.00000000  0.50000056  1
  Th  Th19  1  0.00000000  0.49999920  0.50000056  1
