# generated using pymatgen
data_MgNpO3
_symmetry_space_group_name_H-M   'P 1'
_cell_length_a   5.34380619
_cell_length_b   5.67931662
_cell_length_c   7.63133051
_cell_angle_alpha   90.00000000
_cell_angle_beta   90.00000000
_cell_angle_gamma   90.00000000
_symmetry_Int_Tables_number   1
_chemical_formula_structural   MgNpO3
_chemical_formula_sum   'Mg4 Np4 O12'
_cell_volume   231.60452603
_cell_formula_units_Z   4
loop_
 _symmetry_equiv_pos_site_id
 _symmetry_equiv_pos_as_xyz
  1  'x, y, z'
loop_
 _atom_site_type_symbol
 _atom_site_label
 _atom_site_symmetry_multiplicity
 _atom_site_fract_x
 _atom_site_fract_y
 _atom_site_fract_z
 _atom_site_occupancy
  Mg  Mg0  1  0.49999942  0.00000000  0.00000000  1
  Mg  Mg1  1  0.00000000  0.50000030  0.00000000  1
  Mg  Mg2  1  0.49999942  0.00000000  0.50000062  1
  Mg  Mg3  1  0.00000000  0.50000030  0.50000062  1
  Np  Np4  1  0.98440322  0.06881814  0.24999966  1
  Np  Np5  1  0.51559692  0.56881844  0.24999966  1
  Np  Np6  1  0.48440192  0.43118216  0.75000028  1
  Np  Np7  1  0.01559750  0.93118246  0.75000028  1
  O  O8  1  0.68470110  0.31377367  0.05927669  1
  O  O9  1  0.81529903  0.81377396  0.05927669  1
  O  O10  1  0.11814425  0.45521146  0.24999966  1
  O  O11  1  0.38185517  0.95521176  0.24999966  1
  O  O12  1  0.68470110  0.31377367  0.44072393  1
  O  O13  1  0.81529903  0.81377396  0.44072393  1
  O  O14  1  0.18470168  0.18622663  0.55927600  1
  O  O15  1  0.31529961  0.68622693  0.55927600  1
  O  O16  1  0.61814368  0.04478884  0.75000028  1
  O  O17  1  0.88185646  0.54478914  0.75000028  1
  O  O18  1  0.18470168  0.18622663  0.94072325  1
  O  O19  1  0.31529961  0.68622693  0.94072325  1
