# generated using pymatgen
data_AcNbO3
_symmetry_space_group_name_H-M   'P 1'
_cell_length_a   5.71674644
_cell_length_b   5.96561218
_cell_length_c   8.20147427
_cell_angle_alpha   90.00000000
_cell_angle_beta   90.00000000
_cell_angle_gamma   90.00000000
_symmetry_Int_Tables_number   1
_chemical_formula_structural   AcNbO3
_chemical_formula_sum   'Ac4 Nb4 O12'
_cell_volume   279.70219436
_cell_formula_units_Z   4
loop_
 _symmetry_equiv_pos_site_id
 _symmetry_equiv_pos_as_xyz
  1  'x, y, z'
loop_
 _atom_site_type_symbol
 _atom_site_label
 _atom_site_symmetry_multiplicity
 _atom_site_fract_x
 _atom_site_fract_y
 _atom_site_fract_z
 _atom_site_occupancy
  Ac  Ac0  1  0.98926899  0.05741238  0.25000017  1
  Ac  Ac1  1  0.51073107  0.55741136  0.25000017  1
  Ac  Ac2  1  0.48926956  0.44258660  0.75000052  1
  Ac  Ac3  1  0.01072988  0.94258725  0.75000052  1
  Nb  Nb4  1  0.50000119  0.00000000  0.00000000  1
  Nb  Nb5  1  0.00000000  0.49999898  0.00000000  1
  Nb  Nb6  1  0.50000119  0.00000000  0.50000035  1
  Nb  Nb7  1  0.00000000  0.49999898  0.50000035  1
  O  O8  1  0.70555342  0.28885719  0.03684947  1
  O  O9  1  0.79444664  0.78885785  0.03684947  1
  O  O10  1  0.06857922  0.48944683  0.25000017  1
  O  O11  1  0.43142022  0.98944581  0.25000017  1
  O  O12  1  0.70555342  0.28885719  0.46315088  1
  O  O13  1  0.79444664  0.78885785  0.46315088  1
  O  O14  1  0.20555398  0.21114346  0.53684860  1
  O  O15  1  0.29444720  0.71114244  0.53684860  1
  O  O16  1  0.56857865  0.01055382  0.75000052  1
  O  O17  1  0.93141966  0.51055280  0.75000052  1
  O  O18  1  0.20555398  0.21114346  0.96315123  1
  O  O19  1  0.29444720  0.71114244  0.96315123  1
