# generated using pymatgen
data_BaNpO3
_symmetry_space_group_name_H-M   'P 1'
_cell_length_a   6.23318766
_cell_length_b   6.27257375
_cell_length_c   8.84892769
_cell_angle_alpha   90.00000000
_cell_angle_beta   90.00000000
_cell_angle_gamma   90.00000000
_symmetry_Int_Tables_number   1
_chemical_formula_structural   BaNpO3
_chemical_formula_sum   'Ba4 Np4 O12'
_cell_volume   345.97651861
_cell_formula_units_Z   4
loop_
 _symmetry_equiv_pos_site_id
 _symmetry_equiv_pos_as_xyz
  1  'x, y, z'
loop_
 _atom_site_type_symbol
 _atom_site_label
 _atom_site_symmetry_multiplicity
 _atom_site_fract_x
 _atom_site_fract_y
 _atom_site_fract_z
 _atom_site_occupancy
  Ba  Ba0  1  0.99407724  0.02867404  0.24999978  1
  Ba  Ba1  1  0.50592252  0.52867613  0.24999978  1
  Ba  Ba2  1  0.49407625  0.47132487  0.75000048  1
  Ba  Ba3  1  0.00592153  0.97132537  0.75000048  1
  Np  Np4  1  0.49999939  0.00000000  0.00000000  1
  Np  Np5  1  0.00000000  0.50000050  0.00000000  1
  Np  Np6  1  0.49999939  0.00000000  0.50000070  1
  Np  Np7  1  0.00000000  0.50000050  0.50000070  1
  O  O8  1  0.71195193  0.28735732  0.03889737  1
  O  O9  1  0.78804783  0.78735623  0.03889737  1
  O  O10  1  0.07379370  0.47864722  0.24999978  1
  O  O11  1  0.42620568  0.97864613  0.24999978  1
  O  O12  1  0.71195193  0.28735732  0.46110107  1
  O  O13  1  0.78804783  0.78735623  0.46110107  1
  O  O14  1  0.21195094  0.21264318  0.53889806  1
  O  O15  1  0.28804684  0.71264527  0.53889806  1
  O  O16  1  0.57379469  0.02135487  0.75000048  1
  O  O17  1  0.92620667  0.52135377  0.75000048  1
  O  O18  1  0.21195094  0.21264318  0.96110176  1
  O  O19  1  0.28804684  0.71264527  0.96110176  1
