# generated using pymatgen
data_PtPbO3
_symmetry_space_group_name_H-M   'P 1'
_cell_length_a   5.59512593
_cell_length_b   5.80636539
_cell_length_c   7.95906335
_cell_angle_alpha   90.00000000
_cell_angle_beta   90.00000000
_cell_angle_gamma   90.00000000
_symmetry_Int_Tables_number   1
_chemical_formula_structural   PtPbO3
_chemical_formula_sum   'Pt4 Pb4 O12'
_cell_volume   258.56884106
_cell_formula_units_Z   4
loop_
 _symmetry_equiv_pos_site_id
 _symmetry_equiv_pos_as_xyz
  1  'x, y, z'
loop_
 _atom_site_type_symbol
 _atom_site_label
 _atom_site_symmetry_multiplicity
 _atom_site_fract_x
 _atom_site_fract_y
 _atom_site_fract_z
 _atom_site_occupancy
  O  O0  1  0.69616842  0.29877727  0.04808732  1
  O  O1  1  0.80383177  0.79877853  0.04808732  1
  O  O2  1  0.09766536  0.46399078  0.24999927  1
  O  O3  1  0.40233411  0.96399204  0.24999927  1
  O  O4  1  0.69616842  0.29877727  0.45191373  1
  O  O5  1  0.80383177  0.79877853  0.45191373  1
  O  O6  1  0.19616895  0.20122227  0.54808585  1
  O  O7  1  0.30383052  0.70122180  0.54808585  1
  O  O8  1  0.59766662  0.03600876  0.74999906  1
  O  O9  1  0.90233537  0.53601002  0.74999906  1
  O  O10  1  0.19616895  0.20122227  0.95191352  1
  O  O11  1  0.30383052  0.70122180  0.95191352  1
  Pb  Pb12  1  0.98758456  0.04937857  0.24999927  1
  Pb  Pb13  1  0.51241563  0.54937810  0.24999927  1
  Pb  Pb14  1  0.48758509  0.45062269  0.74999906  1
  Pb  Pb15  1  0.01241616  0.95062051  0.74999906  1
  Pt  Pt16  1  0.49999947  0.00000000  0.00000000  1
  Pt  Pt17  1  0.00000000  0.50000126  0.00000000  1
  Pt  Pt18  1  0.49999947  0.00000000  0.49999979  1
  Pt  Pt19  1  0.00000000  0.50000126  0.49999979  1
