# generated using pymatgen
data_InSnO3
_symmetry_space_group_name_H-M   'P 1'
_cell_length_a   5.60207864
_cell_length_b   5.69827542
_cell_length_c   8.32244644
_cell_angle_alpha   90.00000000
_cell_angle_beta   90.00000000
_cell_angle_gamma   90.00000000
_symmetry_Int_Tables_number   1
_chemical_formula_structural   InSnO3
_chemical_formula_sum   'In4 Sn4 O12'
_cell_volume   265.67069201
_cell_formula_units_Z   4
loop_
 _symmetry_equiv_pos_site_id
 _symmetry_equiv_pos_as_xyz
  1  'x, y, z'
loop_
 _atom_site_type_symbol
 _atom_site_label
 _atom_site_symmetry_multiplicity
 _atom_site_fract_x
 _atom_site_fract_y
 _atom_site_fract_z
 _atom_site_occupancy
  In  In0  1  0.99273330  0.04362723  0.24999981  1
  In  In1  1  0.50726528  0.54362588  0.24999981  1
  In  In2  1  0.49273496  0.45637492  0.74999942  1
  In  In3  1  0.00726695  0.95637357  0.74999942  1
  O  O4  1  0.67703084  0.31968093  0.07593200  1
  O  O5  1  0.82296953  0.81968133  0.07593200  1
  O  O6  1  0.13630119  0.40577716  0.24999981  1
  O  O7  1  0.36369714  0.90577756  0.24999981  1
  O  O8  1  0.67703084  0.31968093  0.42406761  1
  O  O9  1  0.82296953  0.81968133  0.42406761  1
  O  O10  1  0.17703072  0.18031947  0.57593281  1
  O  O11  1  0.32296940  0.68031812  0.57593281  1
  O  O12  1  0.63630310  0.09422324  0.74999942  1
  O  O13  1  0.86369905  0.59422365  0.74999942  1
  O  O14  1  0.17703072  0.18031947  0.92406723  1
  O  O15  1  0.32296940  0.68031812  0.92406723  1
  Sn  Sn16  1  0.49999834  0.00000000  0.00000000  1
  Sn  Sn17  1  0.00000000  0.49999865  0.00000000  1
  Sn  Sn18  1  0.49999834  0.00000000  0.49999961  1
  Sn  Sn19  1  0.00000000  0.49999865  0.49999961  1
