# generated using pymatgen
data_LuFeO3
_symmetry_space_group_name_H-M   'P 1'
_cell_length_a   3.63214689
_cell_length_b   3.63214689
_cell_length_c   4.62236155
_cell_angle_alpha   90.00000000
_cell_angle_beta   90.00000000
_cell_angle_gamma   90.00000000
_symmetry_Int_Tables_number   1
_chemical_formula_structural   LuFeO3
_chemical_formula_sum   'Lu1 Fe1 O3'
_cell_volume   60.98046340
_cell_formula_units_Z   1
loop_
 _symmetry_equiv_pos_site_id
 _symmetry_equiv_pos_as_xyz
  1  'x, y, z'
loop_
 _atom_site_type_symbol
 _atom_site_label
 _atom_site_symmetry_multiplicity
 _atom_site_fract_x
 _atom_site_fract_y
 _atom_site_fract_z
 _atom_site_occupancy
  Fe  Fe0  1  0.50000180  0.50000180  0.51647842  1
  Lu  Lu1  1  0.00000000  0.00000000  0.93008086  1
  O  O2  1  0.50000180  0.50000180  0.12000359  1
  O  O3  1  0.50000180  0.00000000  0.66671981  1
  O  O4  1  0.00000000  0.50000180  0.66671981  1
