# generated using pymatgen
data_PmTcO3
_symmetry_space_group_name_H-M   'P 1'
_cell_length_a   5.35661965
_cell_length_b   5.91079907
_cell_length_c   7.74879188
_cell_angle_alpha   90.00000000
_cell_angle_beta   90.00000000
_cell_angle_gamma   90.00000000
_symmetry_Int_Tables_number   1
_chemical_formula_structural   PmTcO3
_chemical_formula_sum   'Pm4 Tc4 O12'
_cell_volume   245.34149228
_cell_formula_units_Z   4
loop_
 _symmetry_equiv_pos_site_id
 _symmetry_equiv_pos_as_xyz
  1  'x, y, z'
loop_
 _atom_site_type_symbol
 _atom_site_label
 _atom_site_symmetry_multiplicity
 _atom_site_fract_x
 _atom_site_fract_y
 _atom_site_fract_z
 _atom_site_occupancy
  O  O0  1  0.68285416  0.30303009  0.05277081  1
  O  O1  1  0.81714594  0.80302848  0.05277081  1
  O  O2  1  0.12310749  0.45727151  0.25000026  1
  O  O3  1  0.37689254  0.95727159  0.25000026  1
  O  O4  1  0.68285416  0.30303009  0.44722843  1
  O  O5  1  0.81714594  0.80302848  0.44722843  1
  O  O6  1  0.18285413  0.19696998  0.55277133  1
  O  O7  1  0.31714591  0.69697006  0.55277133  1
  O  O8  1  0.62310752  0.04272857  0.74999950  1
  O  O9  1  0.87689258  0.54272865  0.74999950  1
  O  O10  1  0.18285413  0.19696998  0.94722895  1
  O  O11  1  0.31714591  0.69697006  0.94722895  1
  Pm  Pm12  1  0.96817029  0.07988260  0.25000026  1
  Pm  Pm13  1  0.53182981  0.57988268  0.25000026  1
  Pm  Pm14  1  0.46817026  0.42011748  0.74999950  1
  Pm  Pm15  1  0.03182978  0.92011756  0.74999950  1
  Tc  Tc16  1  0.50000003  0.00000000  0.00000000  1
  Tc  Tc17  1  0.00000000  0.50000008  0.00000000  1
  Tc  Tc18  1  0.50000003  0.00000000  0.50000052  1
  Tc  Tc19  1  0.00000000  0.50000008  0.50000052  1
