# generated using pymatgen
data_SrPmO3
_symmetry_space_group_name_H-M   'P 1'
_cell_length_a   6.06579375
_cell_length_b   6.26581247
_cell_length_c   8.66988379
_cell_angle_alpha   90.00000000
_cell_angle_beta   90.00000000
_cell_angle_gamma   90.00000000
_symmetry_Int_Tables_number   1
_chemical_formula_structural   SrPmO3
_chemical_formula_sum   'Sr4 Pm4 O12'
_cell_volume   329.51736673
_cell_formula_units_Z   4
loop_
 _symmetry_equiv_pos_site_id
 _symmetry_equiv_pos_as_xyz
  1  'x, y, z'
loop_
 _atom_site_type_symbol
 _atom_site_label
 _atom_site_symmetry_multiplicity
 _atom_site_fract_x
 _atom_site_fract_y
 _atom_site_fract_z
 _atom_site_occupancy
  O  O0  1  0.70430684  0.29370652  0.06849919  1
  O  O1  1  0.79569306  0.79370712  0.06849919  1
  O  O2  1  0.12561423  0.43970196  0.24999989  1
  O  O3  1  0.37438629  0.93970256  0.24999989  1
  O  O4  1  0.70430684  0.29370652  0.43150059  1
  O  O5  1  0.79569306  0.79370712  0.43150059  1
  O  O6  1  0.20430797  0.20629248  0.56849782  1
  O  O7  1  0.29569255  0.70629468  0.56849782  1
  O  O8  1  0.62561309  0.06029705  0.74999967  1
  O  O9  1  0.87438680  0.56029765  0.74999967  1
  O  O10  1  0.20430797  0.20629248  0.93150153  1
  O  O11  1  0.29569255  0.70629468  0.93150153  1
  Pm  Pm12  1  0.50000052  0.00000000  0.00000000  1
  Pm  Pm13  1  0.00000000  0.50000060  0.00000000  1
  Pm  Pm14  1  0.50000052  0.00000000  0.49999978  1
  Pm  Pm15  1  0.00000000  0.50000060  0.49999978  1
  Sr  Sr16  1  0.97950907  0.05199485  0.24999989  1
  Sr  Sr17  1  0.52049083  0.55199386  0.24999989  1
  Sr  Sr18  1  0.47950856  0.44800575  0.74999967  1
  Sr  Sr19  1  0.02049196  0.94800475  0.74999967  1
