# generated using pymatgen
data_MnVO3
_symmetry_space_group_name_H-M   'P 1'
_cell_length_a   3.80874441
_cell_length_b   3.80874441
_cell_length_c   3.98748231
_cell_angle_alpha   90.00000000
_cell_angle_beta   90.00000000
_cell_angle_gamma   90.00000000
_symmetry_Int_Tables_number   1
_chemical_formula_structural   MnVO3
_chemical_formula_sum   'Mn1 V1 O3'
_cell_volume   57.84454779
_cell_formula_units_Z   1
loop_
 _symmetry_equiv_pos_site_id
 _symmetry_equiv_pos_as_xyz
  1  'x, y, z'
loop_
 _atom_site_type_symbol
 _atom_site_label
 _atom_site_symmetry_multiplicity
 _atom_site_fract_x
 _atom_site_fract_y
 _atom_site_fract_z
 _atom_site_occupancy
  Mn  Mn0  1  0.00000000  0.00000000  0.91242787  1
  O  O1  1  0.49999942  0.49999942  0.12270399  1
  O  O2  1  0.49999942  0.00000000  0.65756279  1
  O  O3  1  0.00000000  0.49999942  0.65756279  1
  V  V4  1  0.49999942  0.49999942  0.54974538  1
