# generated using pymatgen
data_TbCrO3
_symmetry_space_group_name_H-M   'P 1'
_cell_length_a   3.81014302
_cell_length_b   3.81014302
_cell_length_c   3.93589328
_cell_angle_alpha   90.00000000
_cell_angle_beta   90.00000000
_cell_angle_gamma   90.00000000
_symmetry_Int_Tables_number   1
_chemical_formula_structural   TbCrO3
_chemical_formula_sum   'Tb1 Cr1 O3'
_cell_volume   57.13811000
_cell_formula_units_Z   1
loop_
 _symmetry_equiv_pos_site_id
 _symmetry_equiv_pos_as_xyz
  1  'x, y, z'
loop_
 _atom_site_type_symbol
 _atom_site_label
 _atom_site_symmetry_multiplicity
 _atom_site_fract_x
 _atom_site_fract_y
 _atom_site_fract_z
 _atom_site_occupancy
  Cr  Cr0  1  0.49999960  0.49999960  0.78657875  1
  O  O1  1  0.49999960  0.49999960  0.27331788  1
  O  O2  1  0.49999960  0.00000000  0.73429074  1
  O  O3  1  0.00000000  0.49999960  0.73429074  1
  Tb  Tb4  1  0.00000000  0.00000000  0.37151668  1
