# generated using pymatgen
data_TbCrO3
_symmetry_space_group_name_H-M   'P 1'
_cell_length_a   5.50600000
_cell_length_b   7.57000000
_cell_length_c   5.28800000
_cell_angle_alpha   90.00000000
_cell_angle_beta   90.00000000
_cell_angle_gamma   90.00000000
_symmetry_Int_Tables_number   1
_chemical_formula_structural   TbCrO3
_chemical_formula_sum   'Tb4 Cr4 O12'
_cell_volume   220.40606096
_cell_formula_units_Z   4
loop_
 _symmetry_equiv_pos_site_id
 _symmetry_equiv_pos_as_xyz
  1  'x, y, z'
loop_
 _atom_site_type_symbol
 _atom_site_label
 _atom_site_symmetry_multiplicity
 _atom_site_fract_x
 _atom_site_fract_y
 _atom_site_fract_z
 _atom_site_occupancy
  Cr  Cr0  1  0.92823019  0.75000000  0.00340371  1
  Cr  Cr1  1  0.42823019  0.75000000  0.49659629  1
  Cr  Cr2  1  0.57176981  0.25000000  0.50340371  1
  Cr  Cr3  1  0.07176981  0.25000000  0.99659629  1
  O  O4  1  0.43404291  0.75000000  0.02104787  1
  O  O5  1  0.77145113  0.10464540  0.19990085  1
  O  O6  1  0.77145113  0.39535460  0.19990085  1
  O  O7  1  0.27145113  0.10464540  0.30009915  1
  O  O8  1  0.27145113  0.39535460  0.30009915  1
  O  O9  1  0.93404291  0.75000000  0.47895213  1
  O  O10  1  0.06595709  0.25000000  0.52104787  1
  O  O11  1  0.72854887  0.60464540  0.69990085  1
  O  O12  1  0.72854887  0.89535460  0.69990085  1
  O  O13  1  0.22854887  0.60464540  0.80009915  1
  O  O14  1  0.22854887  0.89535460  0.80009915  1
  O  O15  1  0.56595709  0.25000000  0.97895213  1
  Tb  Tb16  1  0.50000000  0.00000000  0.00000000  1
  Tb  Tb17  1  0.50000000  0.50000000  0.00000000  1
  Tb  Tb18  1  0.00000000  0.00000000  0.50000000  1
  Tb  Tb19  1  0.00000000  0.50000000  0.50000000  1
