# generated using pymatgen
data_TbCrO3
_symmetry_space_group_name_H-M   'P 1'
_cell_length_a   5.50600000
_cell_length_b   7.57000000
_cell_length_c   5.28800000
_cell_angle_alpha   90.00000000
_cell_angle_beta   90.00000000
_cell_angle_gamma   90.00000000
_symmetry_Int_Tables_number   1
_chemical_formula_structural   TbCrO3
_chemical_formula_sum   'Tb4 Cr4 O12'
_cell_volume   220.40606096
_cell_formula_units_Z   4
loop_
 _symmetry_equiv_pos_site_id
 _symmetry_equiv_pos_as_xyz
  1  'x, y, z'
loop_
 _atom_site_type_symbol
 _atom_site_label
 _atom_site_symmetry_multiplicity
 _atom_site_fract_x
 _atom_site_fract_y
 _atom_site_fract_z
 _atom_site_occupancy
  Cr  Cr0  1  0.50000000  0.00000000  0.00000000  1
  Cr  Cr1  1  0.50000000  0.50000000  0.00000000  1
  Cr  Cr2  1  0.00000000  0.00000000  0.50000000  1
  Cr  Cr3  1  0.00000000  0.50000000  0.50000000  1
  O  O4  1  0.39270432  0.75000000  0.03258021  1
  O  O5  1  0.82578512  0.03721378  0.18610612  1
  O  O6  1  0.82578512  0.46278622  0.18610612  1
  O  O7  1  0.32578512  0.03721378  0.31389388  1
  O  O8  1  0.32578512  0.46278622  0.31389388  1
  O  O9  1  0.89270432  0.75000000  0.46741979  1
  O  O10  1  0.10729568  0.25000000  0.53258021  1
  O  O11  1  0.67421488  0.53721378  0.68610612  1
  O  O12  1  0.67421488  0.96278622  0.68610612  1
  O  O13  1  0.17421488  0.53721378  0.81389388  1
  O  O14  1  0.17421488  0.96278622  0.81389388  1
  O  O15  1  0.60729568  0.25000000  0.96741979  1
  Tb  Tb16  1  0.05362259  0.25000000  0.01916495  1
  Tb  Tb17  1  0.55362259  0.25000000  0.48083505  1
  Tb  Tb18  1  0.44637741  0.75000000  0.51916495  1
  Tb  Tb19  1  0.94637741  0.75000000  0.98083505  1
