# generated using pymatgen
data_AgTeO3
_symmetry_space_group_name_H-M   'P 1'
_cell_length_a   4.03519001
_cell_length_b   4.03519001
_cell_length_c   4.04335914
_cell_angle_alpha   90.00000000
_cell_angle_beta   90.00000000
_cell_angle_gamma   90.00000000
_symmetry_Int_Tables_number   1
_chemical_formula_structural   AgTeO3
_chemical_formula_sum   'Ag1 Te1 O3'
_cell_volume   65.83704004
_cell_formula_units_Z   1
loop_
 _symmetry_equiv_pos_site_id
 _symmetry_equiv_pos_as_xyz
  1  'x, y, z'
loop_
 _atom_site_type_symbol
 _atom_site_label
 _atom_site_symmetry_multiplicity
 _atom_site_fract_x
 _atom_site_fract_y
 _atom_site_fract_z
 _atom_site_occupancy
  Ag  Ag0  1  0.00000000  0.00000000  0.07664172  1
  O  O1  1  0.49999876  0.49999876  0.08057904  1
  O  O2  1  0.49999876  0.00000000  0.58151649  1
  O  O3  1  0.00000000  0.49999876  0.58151649  1
  Te  Te4  1  0.49999876  0.49999876  0.57974568  1
