# generated using pymatgen
data_PaAlO3
_symmetry_space_group_name_H-M   'P 1'
_cell_length_a   5.37102301
_cell_length_b   5.37102301
_cell_length_c   5.37102274
_cell_angle_alpha   59.58544372
_cell_angle_beta   59.58544372
_cell_angle_gamma   59.58542989
_symmetry_Int_Tables_number   1
_chemical_formula_structural   PaAlO3
_chemical_formula_sum   'Pa2 Al2 O6'
_cell_volume   108.52857890
_cell_formula_units_Z   2
loop_
 _symmetry_equiv_pos_site_id
 _symmetry_equiv_pos_as_xyz
  1  'x, y, z'
loop_
 _atom_site_type_symbol
 _atom_site_label
 _atom_site_symmetry_multiplicity
 _atom_site_fract_x
 _atom_site_fract_y
 _atom_site_fract_z
 _atom_site_occupancy
  Al  Al0  1  0.00000000  0.00000000  0.00000000  1
  Al  Al1  1  0.50000011  0.50000011  0.50000044  1
  O  O2  1  0.75000024  0.25507130  0.24492864  1
  O  O3  1  0.74493005  0.75506995  0.24999889  1
  O  O4  1  0.24493025  0.74999908  0.25507085  1
  O  O5  1  0.75506922  0.25000038  0.74492928  1
  O  O6  1  0.25507050  0.24493060  0.74999908  1
  O  O7  1  0.25000031  0.74492925  0.75506933  1
  Pa  Pa8  1  0.24999968  0.24999968  0.24999984  1
  Pa  Pa9  1  0.74999979  0.74999979  0.75000029  1
