# generated using pymatgen
data_CaErO3
_symmetry_space_group_name_H-M   'P 1'
_cell_length_a   5.86606971
_cell_length_b   6.08568780
_cell_length_c   7.79105586
_cell_angle_alpha   90.00000000
_cell_angle_beta   90.00000000
_cell_angle_gamma   90.00000000
_symmetry_Int_Tables_number   1
_chemical_formula_structural   CaErO3
_chemical_formula_sum   'Ca4 Er4 O12'
_cell_volume   278.13343999
_cell_formula_units_Z   4
loop_
 _symmetry_equiv_pos_site_id
 _symmetry_equiv_pos_as_xyz
  1  'x, y, z'
loop_
 _atom_site_type_symbol
 _atom_site_label
 _atom_site_symmetry_multiplicity
 _atom_site_fract_x
 _atom_site_fract_y
 _atom_site_fract_z
 _atom_site_occupancy
  Ca  Ca0  1  0.98315402  0.05800330  0.25000077  1
  Ca  Ca1  1  0.51684520  0.55800431  0.25000077  1
  Ca  Ca2  1  0.48315484  0.44199606  0.74999976  1
  Ca  Ca3  1  0.01684433  0.94199541  0.74999976  1
  Er  Er4  1  0.49999917  0.00000000  0.00000000  1
  Er  Er5  1  0.00000000  0.49999936  0.00000000  1
  Er  Er6  1  0.49999917  0.00000000  0.50000027  1
  Er  Er7  1  0.00000000  0.49999936  0.50000027  1
  O  O8  1  0.70504447  0.29034352  0.08634003  1
  O  O9  1  0.79495646  0.79034288  0.08634003  1
  O  O10  1  0.15510726  0.41601050  0.25000077  1
  O  O11  1  0.34489362  0.91600986  0.25000077  1
  O  O12  1  0.70504447  0.29034352  0.41366024  1
  O  O13  1  0.79495646  0.79034288  0.41366024  1
  O  O14  1  0.20504530  0.20965749  0.58633901  1
  O  O15  1  0.29495729  0.70965684  0.58633901  1
  O  O16  1  0.65510643  0.08398886  0.74999976  1
  O  O17  1  0.84489279  0.58398987  0.74999976  1
  O  O18  1  0.20504530  0.20965749  0.91366050  1
  O  O19  1  0.29495729  0.70965684  0.91366050  1
