# generated using pymatgen
data_YTcO3
_symmetry_space_group_name_H-M   'P 1'
_cell_length_a   3.93436300
_cell_length_b   3.93436300
_cell_length_c   3.93436300
_cell_angle_alpha   90.00000000
_cell_angle_beta   90.00000000
_cell_angle_gamma   90.00000000
_symmetry_Int_Tables_number   1
_chemical_formula_structural   YTcO3
_chemical_formula_sum   'Y1 Tc1 O3'
_cell_volume   60.90083981
_cell_formula_units_Z   1
loop_
 _symmetry_equiv_pos_site_id
 _symmetry_equiv_pos_as_xyz
  1  'x, y, z'
loop_
 _atom_site_type_symbol
 _atom_site_label
 _atom_site_symmetry_multiplicity
 _atom_site_fract_x
 _atom_site_fract_y
 _atom_site_fract_z
 _atom_site_occupancy
  O  O0  1  0.49999962  0.49999962  0.00000000  1
  O  O1  1  0.49999962  0.00000000  0.49999962  1
  O  O2  1  0.00000000  0.49999962  0.49999962  1
  Tc  Tc3  1  0.49999962  0.49999962  0.49999962  1
  Y  Y4  1  0.00000000  0.00000000  0.00000000  1
