# generated using pymatgen
data_AcPtO3
_symmetry_space_group_name_H-M   'P 1'
_cell_length_a   5.81084710
_cell_length_b   6.17711254
_cell_length_c   7.80545523
_cell_angle_alpha   90.00000000
_cell_angle_beta   90.00000000
_cell_angle_gamma   90.00000000
_symmetry_Int_Tables_number   1
_chemical_formula_structural   AcPtO3
_chemical_formula_sum   'Ac4 Pt4 O12'
_cell_volume   280.17101174
_cell_formula_units_Z   4
loop_
 _symmetry_equiv_pos_site_id
 _symmetry_equiv_pos_as_xyz
  1  'x, y, z'
loop_
 _atom_site_type_symbol
 _atom_site_label
 _atom_site_symmetry_multiplicity
 _atom_site_fract_x
 _atom_site_fract_y
 _atom_site_fract_z
 _atom_site_occupancy
  Ac  Ac0  1  0.98119429  0.06623969  0.25000079  1
  Ac  Ac1  1  0.51880560  0.56624029  0.25000079  1
  Ac  Ac2  1  0.48119490  0.43375930  0.74999982  1
  Ac  Ac3  1  0.01880621  0.93375990  0.74999982  1
  O  O4  1  0.69945052  0.29419247  0.04456499  1
  O  O5  1  0.80054937  0.79419307  0.04456499  1
  O  O6  1  0.10717887  0.46419099  0.25000079  1
  O  O7  1  0.39282224  0.96418998  0.25000079  1
  O  O8  1  0.69945052  0.29419247  0.45543532  1
  O  O9  1  0.80054937  0.79419307  0.45543532  1
  O  O10  1  0.19944941  0.20580651  0.54456401  1
  O  O11  1  0.30054998  0.70580712  0.54456401  1
  O  O12  1  0.60717825  0.03580961  0.74999982  1
  O  O13  1  0.89282163  0.53581022  0.74999982  1
  O  O14  1  0.19944941  0.20580651  0.95543563  1
  O  O15  1  0.30054998  0.70580712  0.95543563  1
  Pt  Pt16  1  0.49999939  0.00000000  0.00000000  1
  Pt  Pt17  1  0.00000000  0.50000060  0.00000000  1
  Pt  Pt18  1  0.49999939  0.00000000  0.49999902  1
  Pt  Pt19  1  0.00000000  0.50000060  0.49999902  1
