# generated using pymatgen
data_HgPdO3
_symmetry_space_group_name_H-M   'P 1'
_cell_length_a   5.48641286
_cell_length_b   5.59850722
_cell_length_c   7.83990209
_cell_angle_alpha   90.00000000
_cell_angle_beta   90.00000000
_cell_angle_gamma   90.00000000
_symmetry_Int_Tables_number   1
_chemical_formula_structural   HgPdO3
_chemical_formula_sum   'Hg4 Pd4 O12'
_cell_volume   240.80825345
_cell_formula_units_Z   4
loop_
 _symmetry_equiv_pos_site_id
 _symmetry_equiv_pos_as_xyz
  1  'x, y, z'
loop_
 _atom_site_type_symbol
 _atom_site_label
 _atom_site_symmetry_multiplicity
 _atom_site_fract_x
 _atom_site_fract_y
 _atom_site_fract_z
 _atom_site_occupancy
  Hg  Hg0  1  0.98823405  0.03640792  0.25000057  1
  Hg  Hg1  1  0.51176426  0.53640906  0.25000057  1
  Hg  Hg2  1  0.48823522  0.46359144  0.75000044  1
  Hg  Hg3  1  0.01176543  0.96359258  0.75000044  1
  O  O4  1  0.71788801  0.27901723  0.06897663  1
  O  O5  1  0.78211212  0.77901838  0.06897663  1
  O  O6  1  0.11349492  0.44544553  0.25000057  1
  O  O7  1  0.38650391  0.94544488  0.25000057  1
  O  O8  1  0.71788801  0.27901723  0.43102324  1
  O  O9  1  0.78211212  0.77901838  0.43102324  1
  O  O10  1  0.21788736  0.22098212  0.56897649  1
  O  O11  1  0.28211147  0.72098148  0.56897649  1
  O  O12  1  0.61349557  0.05455383  0.75000044  1
  O  O13  1  0.88650456  0.55455497  0.75000044  1
  O  O14  1  0.21788736  0.22098212  0.93102311  1
  O  O15  1  0.28211147  0.72098148  0.93102311  1
  Pd  Pd16  1  0.50000065  0.00000000  0.00000000  1
  Pd  Pd17  1  0.00000000  0.49999936  0.00000000  1
  Pd  Pd18  1  0.50000065  0.00000000  0.49999987  1
  Pd  Pd19  1  0.00000000  0.49999936  0.49999987  1
