# generated using pymatgen
data_PrUO3
_symmetry_space_group_name_H-M   'P 1'
_cell_length_a   4.39672700
_cell_length_b   4.39672700
_cell_length_c   4.39672700
_cell_angle_alpha   90.00000000
_cell_angle_beta   90.00000000
_cell_angle_gamma   90.00000000
_symmetry_Int_Tables_number   1
_chemical_formula_structural   PrUO3
_chemical_formula_sum   'Pr1 U1 O3'
_cell_volume   84.99404553
_cell_formula_units_Z   1
loop_
 _symmetry_equiv_pos_site_id
 _symmetry_equiv_pos_as_xyz
  1  'x, y, z'
loop_
 _atom_site_type_symbol
 _atom_site_label
 _atom_site_symmetry_multiplicity
 _atom_site_fract_x
 _atom_site_fract_y
 _atom_site_fract_z
 _atom_site_occupancy
  O  O0  1  0.50000148  0.50000148  0.00000000  1
  O  O1  1  0.50000148  0.00000000  0.50000148  1
  O  O2  1  0.00000000  0.50000148  0.50000148  1
  Pr  Pr3  1  0.00000000  0.00000000  0.00000000  1
  U  U4  1  0.50000148  0.50000148  0.50000148  1
