# generated using pymatgen
data_CeHgO3
_symmetry_space_group_name_H-M   'P 1'
_cell_length_a   3.92482480
_cell_length_b   3.92482480
_cell_length_c   5.15245665
_cell_angle_alpha   90.00000000
_cell_angle_beta   90.00000000
_cell_angle_gamma   90.00000000
_symmetry_Int_Tables_number   1
_chemical_formula_structural   CeHgO3
_chemical_formula_sum   'Ce1 Hg1 O3'
_cell_volume   79.36972887
_cell_formula_units_Z   1
loop_
 _symmetry_equiv_pos_site_id
 _symmetry_equiv_pos_as_xyz
  1  'x, y, z'
loop_
 _atom_site_type_symbol
 _atom_site_label
 _atom_site_symmetry_multiplicity
 _atom_site_fract_x
 _atom_site_fract_y
 _atom_site_fract_z
 _atom_site_occupancy
  Ce  Ce0  1  0.00000000  0.00000000  0.95856993  1
  Hg  Hg1  1  0.49999939  0.49999939  0.49192651  1
  O  O2  1  0.49999939  0.49999939  0.07709914  1
  O  O3  1  0.49999939  0.00000000  0.68620277  1
  O  O4  1  0.00000000  0.49999939  0.68620277  1
