# generated using pymatgen
data_PmCoO3
_symmetry_space_group_name_H-M   'P 1'
_cell_length_a   5.31252549
_cell_length_b   5.53842356
_cell_length_c   7.62907208
_cell_angle_alpha   90.00000000
_cell_angle_beta   90.00000000
_cell_angle_gamma   90.00000000
_symmetry_Int_Tables_number   1
_chemical_formula_structural   PmCoO3
_chemical_formula_sum   'Pm4 Co4 O12'
_cell_volume   224.47031282
_cell_formula_units_Z   4
loop_
 _symmetry_equiv_pos_site_id
 _symmetry_equiv_pos_as_xyz
  1  'x, y, z'
loop_
 _atom_site_type_symbol
 _atom_site_label
 _atom_site_symmetry_multiplicity
 _atom_site_fract_x
 _atom_site_fract_y
 _atom_site_fract_z
 _atom_site_occupancy
  Co  Co0  1  0.49999948  0.00000000  0.00000000  1
  Co  Co1  1  0.00000000  0.49999968  0.00000000  1
  Co  Co2  1  0.49999948  0.00000000  0.50000052  1
  Co  Co3  1  0.00000000  0.49999968  0.50000052  1
  O  O4  1  0.70632885  0.29724162  0.04325559  1
  O  O5  1  0.79367149  0.79724130  0.04325559  1
  O  O6  1  0.08107820  0.48509471  0.25000026  1
  O  O7  1  0.41892128  0.98509439  0.25000026  1
  O  O8  1  0.70632885  0.29724162  0.45674493  1
  O  O9  1  0.79367149  0.79724130  0.45674493  1
  O  O10  1  0.20632936  0.20275806  0.54325480  1
  O  O11  1  0.29367200  0.70275774  0.54325480  1
  O  O12  1  0.58107768  0.01490677  0.74999947  1
  O  O13  1  0.91892265  0.51490645  0.74999947  1
  O  O14  1  0.20632936  0.20275806  0.95674414  1
  O  O15  1  0.29367200  0.70275774  0.95674414  1
  Pm  Pm16  1  0.98547292  0.06106070  0.25000026  1
  Pm  Pm17  1  0.51452741  0.56106037  0.25000026  1
  Pm  Pm18  1  0.48547344  0.43894079  0.74999947  1
  Pm  Pm19  1  0.01452793  0.93894047  0.74999947  1
