# generated using pymatgen
data_TiSbO3
_symmetry_space_group_name_H-M   'P 1'
_cell_length_a   5.32881547
_cell_length_b   5.79919701
_cell_length_c   7.72707708
_cell_angle_alpha   90.00000000
_cell_angle_beta   90.00000000
_cell_angle_gamma   90.00000000
_symmetry_Int_Tables_number   1
_chemical_formula_structural   TiSbO3
_chemical_formula_sum   'Ti4 Sb4 O12'
_cell_volume   238.78870972
_cell_formula_units_Z   4
loop_
 _symmetry_equiv_pos_site_id
 _symmetry_equiv_pos_as_xyz
  1  'x, y, z'
loop_
 _atom_site_type_symbol
 _atom_site_label
 _atom_site_symmetry_multiplicity
 _atom_site_fract_x
 _atom_site_fract_y
 _atom_site_fract_z
 _atom_site_occupancy
  O  O0  1  0.66967791  0.31017225  0.04946113  1
  O  O1  1  0.83032337  0.81017251  0.04946113  1
  O  O2  1  0.12687435  0.46816137  0.25000009  1
  O  O3  1  0.37312420  0.96816162  0.25000009  1
  O  O4  1  0.66967791  0.31017225  0.45053776  1
  O  O5  1  0.83032337  0.81017251  0.45053776  1
  O  O6  1  0.16967748  0.18982801  0.54946132  1
  O  O7  1  0.33032294  0.68982654  0.54946132  1
  O  O8  1  0.62687478  0.03183889  0.75000028  1
  O  O9  1  0.87312462  0.53183915  0.75000028  1
  O  O10  1  0.16967748  0.18982801  0.95053795  1
  O  O11  1  0.33032294  0.68982654  0.95053795  1
  Sb  Sb12  1  0.98208317  0.03217687  0.25000009  1
  Sb  Sb13  1  0.51791810  0.53217540  0.25000009  1
  Sb  Sb14  1  0.48208275  0.46782339  0.75000028  1
  Sb  Sb15  1  0.01791768  0.96782365  0.75000028  1
  Ti  Ti16  1  0.50000043  0.00000000  0.00000000  1
  Ti  Ti17  1  0.00000000  0.50000026  0.00000000  1
  Ti  Ti18  1  0.50000043  0.00000000  0.50000019  1
  Ti  Ti19  1  0.00000000  0.50000026  0.50000019  1
