# generated using pymatgen
data_CePtO3
_symmetry_space_group_name_H-M   'P 1'
_cell_length_a   5.63413505
_cell_length_b   6.12833994
_cell_length_c   7.68974920
_cell_angle_alpha   90.00000000
_cell_angle_beta   90.00000000
_cell_angle_gamma   90.00000000
_symmetry_Int_Tables_number   1
_chemical_formula_structural   CePtO3
_chemical_formula_sum   'Ce4 Pt4 O12'
_cell_volume   265.51085231
_cell_formula_units_Z   4
loop_
 _symmetry_equiv_pos_site_id
 _symmetry_equiv_pos_as_xyz
  1  'x, y, z'
loop_
 _atom_site_type_symbol
 _atom_site_label
 _atom_site_symmetry_multiplicity
 _atom_site_fract_x
 _atom_site_fract_y
 _atom_site_fract_z
 _atom_site_occupancy
  Ce  Ce0  1  0.97244385  0.07807824  0.25000035  1
  Ce  Ce1  1  0.52755746  0.57807824  0.25000035  1
  Ce  Ce2  1  0.47244341  0.42192176  0.74999975  1
  Ce  Ce3  1  0.02755702  0.92192177  0.74999975  1
  O  O4  1  0.68687384  0.30267903  0.05053351  1
  O  O5  1  0.81312570  0.80267904  0.05053351  1
  O  O6  1  0.12222462  0.45718906  0.25000035  1
  O  O7  1  0.37777582  0.95718907  0.25000035  1
  O  O8  1  0.68687384  0.30267903  0.44946719  1
  O  O9  1  0.81312570  0.80267904  0.44946719  1
  O  O10  1  0.18687518  0.19732097  0.55053291  1
  O  O11  1  0.31312526  0.69732098  0.55053291  1
  O  O12  1  0.62222328  0.04281094  0.74999975  1
  O  O13  1  0.87777626  0.54281095  0.74999975  1
  O  O14  1  0.18687518  0.19732097  0.94946660  1
  O  O15  1  0.31312526  0.69732098  0.94946660  1
  Pt  Pt16  1  0.50000044  0.00000000  0.00000000  1
  Pt  Pt17  1  0.00000000  0.50000000  0.00000000  1
  Pt  Pt18  1  0.50000044  0.00000000  0.49999940  1
  Pt  Pt19  1  0.00000000  0.50000000  0.49999940  1
