# generated using pymatgen
data_PrTcO3
_symmetry_space_group_name_H-M   'P 1'
_cell_length_a   5.42848784
_cell_length_b   5.92189833
_cell_length_c   7.84883879
_cell_angle_alpha   90.00000000
_cell_angle_beta   90.00000000
_cell_angle_gamma   90.00000000
_symmetry_Int_Tables_number   1
_chemical_formula_structural   PrTcO3
_chemical_formula_sum   'Pr4 Tc4 O12'
_cell_volume   252.31625239
_cell_formula_units_Z   4
loop_
 _symmetry_equiv_pos_site_id
 _symmetry_equiv_pos_as_xyz
  1  'x, y, z'
loop_
 _atom_site_type_symbol
 _atom_site_label
 _atom_site_symmetry_multiplicity
 _atom_site_fract_x
 _atom_site_fract_y
 _atom_site_fract_z
 _atom_site_occupancy
  O  O0  1  0.68743453  0.30031586  0.04978571  1
  O  O1  1  0.81256514  0.80031600  0.04978571  1
  O  O2  1  0.11073249  0.46554497  0.25000004  1
  O  O3  1  0.38926678  0.96554511  0.25000004  1
  O  O4  1  0.68743453  0.30031586  0.45021437  1
  O  O5  1  0.81256514  0.80031600  0.45021437  1
  O  O6  1  0.18743525  0.19968428  0.54978579  1
  O  O7  1  0.31256402  0.69968273  0.54978579  1
  O  O8  1  0.61073177  0.03445517  0.75000012  1
  O  O9  1  0.88926790  0.53445531  0.75000012  1
  O  O10  1  0.18743525  0.19968428  0.95021445  1
  O  O11  1  0.31256402  0.69968273  0.95021445  1
  Pr  Pr12  1  0.97258761  0.07513469  0.25000004  1
  Pr  Pr13  1  0.52741391  0.57513483  0.25000004  1
  Pr  Pr14  1  0.47258649  0.42486376  0.75000012  1
  Pr  Pr15  1  0.02741279  0.92486390  0.75000012  1
  Tc  Tc16  1  0.49999928  0.00000000  0.00000000  1
  Tc  Tc17  1  0.00000000  0.50000014  0.00000000  1
  Tc  Tc18  1  0.49999928  0.00000000  0.50000008  1
  Tc  Tc19  1  0.00000000  0.50000014  0.50000008  1
