# generated using pymatgen
data_SrYO3
_symmetry_space_group_name_H-M   'P 1'
_cell_length_a   6.00665913
_cell_length_b   6.18788862
_cell_length_c   8.42286353
_cell_angle_alpha   90.00000000
_cell_angle_beta   90.00000000
_cell_angle_gamma   90.00000000
_symmetry_Int_Tables_number   1
_chemical_formula_structural   SrYO3
_chemical_formula_sum   'Sr4 Y4 O12'
_cell_volume   313.06552021
_cell_formula_units_Z   4
loop_
 _symmetry_equiv_pos_site_id
 _symmetry_equiv_pos_as_xyz
  1  'x, y, z'
loop_
 _atom_site_type_symbol
 _atom_site_label
 _atom_site_symmetry_multiplicity
 _atom_site_fract_x
 _atom_site_fract_y
 _atom_site_fract_z
 _atom_site_occupancy
  O  O0  1  0.70802919  0.28884974  0.06483068  1
  O  O1  1  0.79197269  0.78884904  0.06483068  1
  O  O2  1  0.11947407  0.44702162  0.25000049  1
  O  O3  1  0.38052600  0.94702092  0.25000049  1
  O  O4  1  0.70802919  0.28884974  0.43516911  1
  O  O5  1  0.79197269  0.78884904  0.43516911  1
  O  O6  1  0.20802912  0.21114957  0.56483166  1
  O  O7  1  0.29197095  0.71115049  0.56483166  1
  O  O8  1  0.61947414  0.05297930  0.75000028  1
  O  O9  1  0.88052608  0.55297860  0.75000028  1
  O  O10  1  0.20802912  0.21114957  0.93516771  1
  O  O11  1  0.29197095  0.71115049  0.93516771  1
  Sr  Sr12  1  0.98060667  0.05102063  0.25000049  1
  Sr  Sr13  1  0.51939355  0.55101994  0.25000049  1
  Sr  Sr14  1  0.48060660  0.44898029  0.75000028  1
  Sr  Sr15  1  0.01939348  0.94897959  0.75000028  1
  Y  Y16  1  0.50000007  0.00000000  0.00000000  1
  Y  Y17  1  0.00000000  0.49999930  0.00000000  1
  Y  Y18  1  0.50000007  0.00000000  0.49999979  1
  Y  Y19  1  0.00000000  0.49999930  0.49999979  1
