# generated using pymatgen
data_PmRhO3
_symmetry_space_group_name_H-M   'P 1'
_cell_length_a   5.35700120
_cell_length_b   5.82605614
_cell_length_c   7.75115694
_cell_angle_alpha   90.00000000
_cell_angle_beta   90.00000000
_cell_angle_gamma   90.00000000
_symmetry_Int_Tables_number   1
_chemical_formula_structural   PmRhO3
_chemical_formula_sum   'Pm4 Rh4 O12'
_cell_volume   241.91507868
_cell_formula_units_Z   4
loop_
 _symmetry_equiv_pos_site_id
 _symmetry_equiv_pos_as_xyz
  1  'x, y, z'
loop_
 _atom_site_type_symbol
 _atom_site_label
 _atom_site_symmetry_multiplicity
 _atom_site_fract_x
 _atom_site_fract_y
 _atom_site_fract_z
 _atom_site_occupancy
  O  O0  1  0.68124681  0.30659505  0.05611033  1
  O  O1  1  0.81875285  0.80659539  0.05611033  1
  O  O2  1  0.11959863  0.46064094  0.25000010  1
  O  O3  1  0.38040126  0.96064127  0.25000010  1
  O  O4  1  0.68124681  0.30659505  0.44388986  1
  O  O5  1  0.81875285  0.80659539  0.44388986  1
  O  O6  1  0.18124693  0.19340528  0.55611053  1
  O  O7  1  0.31875296  0.69340561  0.55611053  1
  O  O8  1  0.61959852  0.03935767  0.75000030  1
  O  O9  1  0.88040115  0.53935800  0.75000030  1
  O  O10  1  0.18124693  0.19340528  0.94389006  1
  O  O11  1  0.31875296  0.69340561  0.94389006  1
  Pm  Pm12  1  0.97237611  0.08029617  0.25000010  1
  Pm  Pm13  1  0.52762542  0.58029479  0.25000010  1
  Pm  Pm14  1  0.47237622  0.41970416  0.75000030  1
  Pm  Pm15  1  0.02762553  0.91970449  0.75000030  1
  Rh  Rh16  1  0.49999989  0.00000000  0.00000000  1
  Rh  Rh17  1  0.00000000  0.50000033  0.00000000  1
  Rh  Rh18  1  0.49999989  0.00000000  0.50000020  1
  Rh  Rh19  1  0.00000000  0.50000033  0.50000020  1
