# generated using pymatgen
data_PmRhO3
_symmetry_space_group_name_H-M   'P 1'
_cell_length_a   3.90210767
_cell_length_b   3.90210767
_cell_length_c   4.18922484
_cell_angle_alpha   90.00000000
_cell_angle_beta   90.00000000
_cell_angle_gamma   90.00000000
_symmetry_Int_Tables_number   1
_chemical_formula_structural   PmRhO3
_chemical_formula_sum   'Pm1 Rh1 O3'
_cell_volume   63.78699872
_cell_formula_units_Z   1
loop_
 _symmetry_equiv_pos_site_id
 _symmetry_equiv_pos_as_xyz
  1  'x, y, z'
loop_
 _atom_site_type_symbol
 _atom_site_label
 _atom_site_symmetry_multiplicity
 _atom_site_fract_x
 _atom_site_fract_y
 _atom_site_fract_z
 _atom_site_occupancy
  O  O0  1  0.50000158  0.50000158  0.08697552  1
  O  O1  1  0.50000158  0.00000000  0.51822236  1
  O  O2  1  0.00000000  0.50000158  0.51822236  1
  Pm  Pm3  1  0.00000000  0.00000000  0.17485096  1
  Rh  Rh4  1  0.50000158  0.50000158  0.60172946  1
