# generated using pymatgen
data_PrGaO3
_symmetry_space_group_name_H-M   'P 1'
_cell_length_a   5.50864100
_cell_length_b   5.60953700
_cell_length_c   7.83722100
_cell_angle_alpha   90.00000000
_cell_angle_beta   90.00000000
_cell_angle_gamma   90.00000000
_symmetry_Int_Tables_number   1
_chemical_formula_structural   PrGaO3
_chemical_formula_sum   'Pr4 Ga4 O12'
_cell_volume   242.17738232
_cell_formula_units_Z   4
loop_
 _symmetry_equiv_pos_site_id
 _symmetry_equiv_pos_as_xyz
  1  'x, y, z'
loop_
 _atom_site_type_symbol
 _atom_site_label
 _atom_site_symmetry_multiplicity
 _atom_site_fract_x
 _atom_site_fract_y
 _atom_site_fract_z
 _atom_site_occupancy
  Pr  Pr0  1  0.01158900  0.95365400  0.75000000  1
  Pr  Pr1  1  0.51158900  0.54634600  0.25000000  1
  Pr  Pr2  1  0.48841100  0.45365400  0.75000000  1
  Pr  Pr3  1  0.98841100  0.04634600  0.25000000  1
  Ga  Ga4  1  0.50000000  0.00000000  0.50000000  1
  Ga  Ga5  1  0.00000000  0.50000000  0.50000000  1
  Ga  Ga6  1  0.00000000  0.50000000  0.00000000  1
  Ga  Ga7  1  0.50000000  0.00000000  0.00000000  1
  O  O8  1  0.71195600  0.28944600  0.45562900  1
  O  O9  1  0.21195600  0.21055400  0.54437100  1
  O  O10  1  0.78804400  0.78944600  0.04437100  1
  O  O11  1  0.28804400  0.71055400  0.95562900  1
  O  O12  1  0.28804400  0.71055400  0.54437100  1
  O  O13  1  0.78804400  0.78944600  0.45562900  1
  O  O14  1  0.21195600  0.21055400  0.95562900  1
  O  O15  1  0.71195600  0.28944600  0.04437100  1
  O  O16  1  0.08243100  0.48047700  0.25000000  1
  O  O17  1  0.58243100  0.01952300  0.75000000  1
  O  O18  1  0.41756900  0.98047700  0.25000000  1
  O  O19  1  0.91756900  0.51952300  0.75000000  1
