# generated using pymatgen
data_AcSmO3
_symmetry_space_group_name_H-M   'P 1'
_cell_length_a   6.07966769
_cell_length_b   6.29296150
_cell_length_c   8.75908639
_cell_angle_alpha   90.00000000
_cell_angle_beta   90.00000000
_cell_angle_gamma   90.00000000
_symmetry_Int_Tables_number   1
_chemical_formula_structural   AcSmO3
_chemical_formula_sum   'Ac4 Sm4 O12'
_cell_volume   335.11489117
_cell_formula_units_Z   4
loop_
 _symmetry_equiv_pos_site_id
 _symmetry_equiv_pos_as_xyz
  1  'x, y, z'
loop_
 _atom_site_type_symbol
 _atom_site_label
 _atom_site_symmetry_multiplicity
 _atom_site_fract_x
 _atom_site_fract_y
 _atom_site_fract_z
 _atom_site_occupancy
  Ac  Ac0  1  0.98587625  0.04920259  0.25000096  1
  Ac  Ac1  1  0.51412349  0.54920247  0.25000096  1
  Ac  Ac2  1  0.48587524  0.45079729  0.75000059  1
  Ac  Ac3  1  0.01412413  0.95079717  0.75000059  1
  O  O4  1  0.69078611  0.30684599  0.06802993  1
  O  O5  1  0.80921364  0.80684587  0.06802993  1
  O  O6  1  0.12840833  0.43799887  0.25000096  1
  O  O7  1  0.37159103  0.93799875  0.25000096  1
  O  O8  1  0.69078611  0.30684599  0.43197085  1
  O  O9  1  0.80921364  0.80684587  0.43197085  1
  O  O10  1  0.19078674  0.19315389  0.56802956  1
  O  O11  1  0.30921262  0.69315536  0.56802956  1
  O  O12  1  0.62840935  0.06200101  0.75000059  1
  O  O13  1  0.87159040  0.56199931  0.75000059  1
  O  O14  1  0.19078674  0.19315389  0.93197049  1
  O  O15  1  0.30921262  0.69315536  0.93197049  1
  Sm  Sm16  1  0.49999937  0.00000000  0.00000000  1
  Sm  Sm17  1  0.00000000  0.49999988  0.00000000  1
  Sm  Sm18  1  0.49999937  0.00000000  0.49999964  1
  Sm  Sm19  1  0.00000000  0.49999988  0.49999964  1
