# generated using pymatgen
data_TlRuO3
_symmetry_space_group_name_H-M   'P 1'
_cell_length_a   5.54209878
_cell_length_b   5.57589250
_cell_length_c   7.81351084
_cell_angle_alpha   90.00000000
_cell_angle_beta   90.00000000
_cell_angle_gamma   90.00000000
_symmetry_Int_Tables_number   1
_chemical_formula_structural   TlRuO3
_chemical_formula_sum   'Tl4 Ru4 O12'
_cell_volume   241.45426065
_cell_formula_units_Z   4
loop_
 _symmetry_equiv_pos_site_id
 _symmetry_equiv_pos_as_xyz
  1  'x, y, z'
loop_
 _atom_site_type_symbol
 _atom_site_label
 _atom_site_symmetry_multiplicity
 _atom_site_fract_x
 _atom_site_fract_y
 _atom_site_fract_z
 _atom_site_occupancy
  O  O0  1  0.72129894  0.27831240  0.04248026  1
  O  O1  1  0.77870139  0.77831127  0.04248026  1
  O  O2  1  0.07837825  0.48262946  0.25000029  1
  O  O3  1  0.42162006  0.98263014  0.25000029  1
  O  O4  1  0.72129894  0.27831240  0.45752032  1
  O  O5  1  0.77870139  0.77831127  0.45752032  1
  O  O6  1  0.22129883  0.22168828  0.54247957  1
  O  O7  1  0.27870128  0.72168895  0.54247957  1
  O  O8  1  0.57837836  0.01737121  0.74999960  1
  O  O9  1  0.92162017  0.51737009  0.74999960  1
  O  O10  1  0.22129883  0.22168828  0.95751963  1
  O  O11  1  0.27870128  0.72168895  0.95751963  1
  Ru  Ru12  1  0.50000011  0.00000000  0.00000000  1
  Ru  Ru13  1  0.00000000  0.50000067  0.00000000  1
  Ru  Ru14  1  0.50000011  0.00000000  0.50000059  1
  Ru  Ru15  1  0.00000000  0.50000067  0.50000059  1
  Tl  Tl16  1  0.99406204  0.02215071  0.25000029  1
  Tl  Tl17  1  0.50593829  0.52215139  0.25000029  1
  Tl  Tl18  1  0.49406193  0.47784817  0.74999960  1
  Tl  Tl19  1  0.00593818  0.97784884  0.74999960  1
