# generated using pymatgen
data_CrCdO3
_symmetry_space_group_name_H-M   'P 1'
_cell_length_a   5.25506053
_cell_length_b   5.35912064
_cell_length_c   7.51365395
_cell_angle_alpha   90.00000000
_cell_angle_beta   90.00000000
_cell_angle_gamma   90.00000000
_symmetry_Int_Tables_number   1
_chemical_formula_structural   CrCdO3
_chemical_formula_sum   'Cr4 Cd4 O12'
_cell_volume   211.60330451
_cell_formula_units_Z   4
loop_
 _symmetry_equiv_pos_site_id
 _symmetry_equiv_pos_as_xyz
  1  'x, y, z'
loop_
 _atom_site_type_symbol
 _atom_site_label
 _atom_site_symmetry_multiplicity
 _atom_site_fract_x
 _atom_site_fract_y
 _atom_site_fract_z
 _atom_site_occupancy
  Cd  Cd0  1  0.99151284  0.04006441  0.25000087  1
  Cd  Cd1  1  0.50848701  0.54006435  0.25000087  1
  Cd  Cd2  1  0.49151289  0.45993553  0.74999994  1
  Cd  Cd3  1  0.00848706  0.95993547  0.74999994  1
  Cr  Cr4  1  0.49999995  0.00000000  0.00000000  1
  Cr  Cr5  1  0.00000000  0.49999994  0.00000000  1
  Cr  Cr6  1  0.49999995  0.00000000  0.49999907  1
  Cr  Cr7  1  0.00000000  0.49999994  0.49999907  1
  O  O8  1  0.70498712  0.30287245  0.04627842  1
  O  O9  1  0.79501273  0.80287239  0.04627842  1
  O  O10  1  0.09014168  0.47204200  0.25000087  1
  O  O11  1  0.40985636  0.97204194  0.25000087  1
  O  O12  1  0.70498712  0.30287245  0.45372066  1
  O  O13  1  0.79501273  0.80287239  0.45372066  1
  O  O14  1  0.20498717  0.19712749  0.54627749  1
  O  O15  1  0.29501278  0.69712743  0.54627749  1
  O  O16  1  0.59014354  0.02795794  0.74999994  1
  O  O17  1  0.90985631  0.52795789  0.74999994  1
  O  O18  1  0.20498717  0.19712749  0.95372239  1
  O  O19  1  0.29501278  0.69712743  0.95372239  1
