# generated using pymatgen
data_PdPbO3
_symmetry_space_group_name_H-M   'P 1'
_cell_length_a   5.52482943
_cell_length_b   5.78307637
_cell_length_c   7.85661486
_cell_angle_alpha   90.00000000
_cell_angle_beta   90.00000000
_cell_angle_gamma   90.00000000
_symmetry_Int_Tables_number   1
_chemical_formula_structural   PdPbO3
_chemical_formula_sum   'Pd4 Pb4 O12'
_cell_volume   251.02285576
_cell_formula_units_Z   4
loop_
 _symmetry_equiv_pos_site_id
 _symmetry_equiv_pos_as_xyz
  1  'x, y, z'
loop_
 _atom_site_type_symbol
 _atom_site_label
 _atom_site_symmetry_multiplicity
 _atom_site_fract_x
 _atom_site_fract_y
 _atom_site_fract_z
 _atom_site_occupancy
  O  O0  1  0.69253360  0.30293565  0.05438856  1
  O  O1  1  0.80746565  0.80293596  0.05438856  1
  O  O2  1  0.10892282  0.45187887  0.24999953  1
  O  O3  1  0.39107633  0.95187918  0.24999953  1
  O  O4  1  0.69253360  0.30293565  0.44561176  1
  O  O5  1  0.80746565  0.80293596  0.44561176  1
  O  O6  1  0.19253264  0.19706466  0.55438889  1
  O  O7  1  0.30746651  0.69706498  0.55438889  1
  O  O8  1  0.60892378  0.04812145  0.74999985  1
  O  O9  1  0.89107728  0.54812176  0.74999985  1
  O  O10  1  0.19253264  0.19706466  0.94561082  1
  O  O11  1  0.30746651  0.69706498  0.94561082  1
  Pb  Pb12  1  0.98488108  0.05489812  0.24999953  1
  Pb  Pb13  1  0.51511817  0.55489843  0.24999953  1
  Pb  Pb14  1  0.48488013  0.44510220  0.74999985  1
  Pb  Pb15  1  0.01511902  0.94510251  0.74999985  1
  Pd  Pd16  1  0.49999915  0.00000000  0.00000000  1
  Pd  Pd17  1  0.00000000  0.50000031  0.00000000  1
  Pd  Pd18  1  0.49999915  0.00000000  0.50000033  1
  Pd  Pd19  1  0.00000000  0.50000031  0.50000033  1
