# generated using pymatgen
data_TmNiO3
_symmetry_space_group_name_H-M   'P 1'
_cell_length_a   5.17108200
_cell_length_b   5.54210900
_cell_length_c   7.41384300
_cell_angle_alpha   90.00000000
_cell_angle_beta   90.00000000
_cell_angle_gamma   90.00000000
_symmetry_Int_Tables_number   1
_chemical_formula_structural   TmNiO3
_chemical_formula_sum   'Tm4 Ni4 O12'
_cell_volume   212.47110307
_cell_formula_units_Z   4
loop_
 _symmetry_equiv_pos_site_id
 _symmetry_equiv_pos_as_xyz
  1  'x, y, z'
loop_
 _atom_site_type_symbol
 _atom_site_label
 _atom_site_symmetry_multiplicity
 _atom_site_fract_x
 _atom_site_fract_y
 _atom_site_fract_z
 _atom_site_occupancy
  Tm  Tm0  1  0.52158300  0.57802200  0.75000000  1
  Tm  Tm1  1  0.02158300  0.92197800  0.25000000  1
  Tm  Tm2  1  0.47841700  0.42197800  0.25000000  1
  Tm  Tm3  1  0.97841700  0.07802200  0.75000000  1
  Ni  Ni4  1  0.00000000  0.50000000  0.00000000  1
  Ni  Ni5  1  0.50000000  0.00000000  0.50000000  1
  Ni  Ni6  1  0.00000000  0.50000000  0.50000000  1
  Ni  Ni7  1  0.50000000  0.00000000  0.00000000  1
  O  O8  1  0.38801600  0.96274400  0.75000000  1
  O  O9  1  0.88801600  0.53725600  0.25000000  1
  O  O10  1  0.61198400  0.03725600  0.25000000  1
  O  O11  1  0.11198400  0.46274400  0.75000000  1
  O  O12  1  0.80365700  0.81212900  0.94683400  1
  O  O13  1  0.30365700  0.68787100  0.44683400  1
  O  O14  1  0.19634300  0.18787100  0.05316600  1
  O  O15  1  0.69634300  0.31212900  0.55316600  1
  O  O16  1  0.30365700  0.68787100  0.05316600  1
  O  O17  1  0.80365700  0.81212900  0.55316600  1
  O  O18  1  0.69634300  0.31212900  0.94683400  1
  O  O19  1  0.19634300  0.18787100  0.44683400  1
