# generated using pymatgen
data_CrMoO3
_symmetry_space_group_name_H-M   'P 1'
_cell_length_a   5.22744052
_cell_length_b   5.43490179
_cell_length_c   7.67886392
_cell_angle_alpha   90.00000000
_cell_angle_beta   90.00000000
_cell_angle_gamma   90.00000000
_symmetry_Int_Tables_number   1
_chemical_formula_structural   CrMoO3
_chemical_formula_sum   'Cr4 Mo4 O12'
_cell_volume   218.16132961
_cell_formula_units_Z   4
loop_
 _symmetry_equiv_pos_site_id
 _symmetry_equiv_pos_as_xyz
  1  'x, y, z'
loop_
 _atom_site_type_symbol
 _atom_site_label
 _atom_site_symmetry_multiplicity
 _atom_site_fract_x
 _atom_site_fract_y
 _atom_site_fract_z
 _atom_site_occupancy
  Cr  Cr0  1  0.99402566  0.06932232  0.25000052  1
  Cr  Cr1  1  0.50597419  0.56932032  0.25000052  1
  Cr  Cr2  1  0.49402571  0.43067936  0.75000027  1
  Cr  Cr3  1  0.00597424  0.93068103  0.75000027  1
  Mo  Mo4  1  0.49999995  0.00000000  0.00000000  1
  Mo  Mo5  1  0.00000000  0.50000168  0.00000000  1
  Mo  Mo6  1  0.49999995  0.00000000  0.49999974  1
  Mo  Mo7  1  0.00000000  0.50000168  0.49999974  1
  O  O8  1  0.69415233  0.29975519  0.07568828  1
  O  O9  1  0.80584944  0.79975318  0.07568828  1
  O  O10  1  0.14233161  0.43299218  0.25000052  1
  O  O11  1  0.35766835  0.93299202  0.25000052  1
  O  O12  1  0.69415233  0.29975519  0.42431147  1
  O  O13  1  0.80584944  0.79975318  0.42431147  1
  O  O14  1  0.19415238  0.20024649  0.57568802  1
  O  O15  1  0.30584949  0.70024816  0.57568802  1
  O  O16  1  0.64233156  0.06700949  0.75000027  1
  O  O17  1  0.85766830  0.56700749  0.75000027  1
  O  O18  1  0.19415238  0.20024649  0.92431121  1
  O  O19  1  0.30584949  0.70024816  0.92431121  1
