# generated using pymatgen
data_NiAgO3
_symmetry_space_group_name_H-M   'P 1'
_cell_length_a   5.12192255
_cell_length_b   5.32283114
_cell_length_c   7.74098465
_cell_angle_alpha   90.00000000
_cell_angle_beta   90.00000000
_cell_angle_gamma   90.00000000
_symmetry_Int_Tables_number   1
_chemical_formula_structural   NiAgO3
_chemical_formula_sum   'Ni4 Ag4 O12'
_cell_volume   211.04346212
_cell_formula_units_Z   4
loop_
 _symmetry_equiv_pos_site_id
 _symmetry_equiv_pos_as_xyz
  1  'x, y, z'
loop_
 _atom_site_type_symbol
 _atom_site_label
 _atom_site_symmetry_multiplicity
 _atom_site_fract_x
 _atom_site_fract_y
 _atom_site_fract_z
 _atom_site_occupancy
  Ag  Ag0  1  0.50000170  0.00000000  0.00000000  1
  Ag  Ag1  1  0.00000000  0.49999895  0.00000000  1
  Ag  Ag2  1  0.50000170  0.00000000  0.49999970  1
  Ag  Ag3  1  0.00000000  0.49999895  0.49999970  1
  Ni  Ni4  1  0.99275027  0.05169617  0.24999920  1
  Ni  Ni5  1  0.50725093  0.55169513  0.24999920  1
  Ni  Ni6  1  0.49274857  0.44830466  0.74999890  1
  Ni  Ni7  1  0.00725118  0.94830549  0.74999890  1
  O  O8  1  0.68155658  0.31356997  0.09216915  1
  O  O9  1  0.81844268  0.81357080  0.09216915  1
  O  O10  1  0.15712459  0.39824859  0.24999920  1
  O  O11  1  0.34287711  0.89825130  0.24999920  1
  O  O12  1  0.68155658  0.31356997  0.40783055  1
  O  O13  1  0.81844268  0.81357080  0.40783055  1
  O  O14  1  0.18155683  0.18642898  0.59217014  1
  O  O15  1  0.31844293  0.68642982  0.59217014  1
  O  O16  1  0.65712239  0.10175036  0.74999890  1
  O  O17  1  0.84287491  0.60174932  0.74999890  1
  O  O18  1  0.18155683  0.18642898  0.90782895  1
  O  O19  1  0.31844293  0.68642982  0.90782895  1
