# generated using pymatgen
data_NiAgO3
_symmetry_space_group_name_H-M   'P 1'
_cell_length_a   5.11752295
_cell_length_b   5.37721586
_cell_length_c   7.41024308
_cell_angle_alpha   90.00000000
_cell_angle_beta   90.00000000
_cell_angle_gamma   90.00000000
_symmetry_Int_Tables_number   1
_chemical_formula_structural   NiAgO3
_chemical_formula_sum   'Ni4 Ag4 O12'
_cell_volume   203.91525847
_cell_formula_units_Z   4
loop_
 _symmetry_equiv_pos_site_id
 _symmetry_equiv_pos_as_xyz
  1  'x, y, z'
loop_
 _atom_site_type_symbol
 _atom_site_label
 _atom_site_symmetry_multiplicity
 _atom_site_fract_x
 _atom_site_fract_y
 _atom_site_fract_z
 _atom_site_occupancy
  Ag  Ag0  1  0.98278015  0.07645592  0.25000125  1
  Ag  Ag1  1  0.51721898  0.57645631  0.25000125  1
  Ag  Ag2  1  0.48278044  0.42354446  0.75000104  1
  Ag  Ag3  1  0.01721927  0.92354299  0.75000104  1
  Ni  Ni4  1  0.50000167  0.00000000  0.00000000  1
  Ni  Ni5  1  0.00000000  0.50000039  0.00000000  1
  Ni  Ni6  1  0.50000167  0.00000000  0.49999979  1
  Ni  Ni7  1  0.00000000  0.50000039  0.49999979  1
  O  O8  1  0.69420109  0.29860062  0.07024061  1
  O  O9  1  0.80580000  0.79860101  0.07024061  1
  O  O10  1  0.13517673  0.43848528  0.25000125  1
  O  O11  1  0.36482299  0.93848566  0.25000125  1
  O  O12  1  0.69420109  0.29860062  0.42975918  1
  O  O13  1  0.80580000  0.79860101  0.42975918  1
  O  O14  1  0.19419942  0.20139976  0.57024040  1
  O  O15  1  0.30579834  0.70140015  0.57024040  1
  O  O16  1  0.63517839  0.06151511  0.75000104  1
  O  O17  1  0.86482270  0.56151549  0.75000104  1
  O  O18  1  0.19419942  0.20139976  0.92976032  1
  O  O19  1  0.30579834  0.70140015  0.92976032  1
