# generated using pymatgen
data_CeTlO3
_symmetry_space_group_name_H-M   'P 1'
_cell_length_a   5.81040194
_cell_length_b   6.18477012
_cell_length_c   8.45327575
_cell_angle_alpha   90.00000000
_cell_angle_beta   90.00000000
_cell_angle_gamma   90.00000000
_symmetry_Int_Tables_number   1
_chemical_formula_structural   CeTlO3
_chemical_formula_sum   'Ce4 Tl4 O12'
_cell_volume   303.77692023
_cell_formula_units_Z   4
loop_
 _symmetry_equiv_pos_site_id
 _symmetry_equiv_pos_as_xyz
  1  'x, y, z'
loop_
 _atom_site_type_symbol
 _atom_site_label
 _atom_site_symmetry_multiplicity
 _atom_site_fract_x
 _atom_site_fract_y
 _atom_site_fract_z
 _atom_site_occupancy
  Ce  Ce0  1  0.97821976  0.06831943  0.25000013  1
  Ce  Ce1  1  0.52177974  0.56831862  0.25000013  1
  Ce  Ce2  1  0.47822165  0.43167975  0.75000038  1
  Ce  Ce3  1  0.02177990  0.93168055  0.75000038  1
  O  O4  1  0.68837578  0.31190973  0.07047682  1
  O  O5  1  0.81162371  0.81190892  0.07047682  1
  O  O6  1  0.14055482  0.43520939  0.25000013  1
  O  O7  1  0.35944501  0.93520857  0.25000013  1
  O  O8  1  0.68837578  0.31190973  0.42952225  1
  O  O9  1  0.81162371  0.81190892  0.42952225  1
  O  O10  1  0.18837595  0.18808945  0.57047707  1
  O  O11  1  0.31162388  0.68809025  0.57047707  1
  O  O12  1  0.64055465  0.06478980  0.75000038  1
  O  O13  1  0.85944485  0.56479060  0.75000038  1
  O  O14  1  0.18837595  0.18808945  0.92952250  1
  O  O15  1  0.31162388  0.68809025  0.92952250  1
  Tl  Tl16  1  0.49999983  0.00000000  0.00000000  1
  Tl  Tl17  1  0.00000000  0.50000080  0.00000000  1
  Tl  Tl18  1  0.49999983  0.00000000  0.50000025  1
  Tl  Tl19  1  0.00000000  0.50000080  0.50000025  1
