# generated using pymatgen
data_ErNpO3
_symmetry_space_group_name_H-M   'P 1'
_cell_length_a   5.78126743
_cell_length_b   6.07022817
_cell_length_c   8.29784935
_cell_angle_alpha   90.00000000
_cell_angle_beta   90.00000000
_cell_angle_gamma   90.00000000
_symmetry_Int_Tables_number   1
_chemical_formula_structural   ErNpO3
_chemical_formula_sum   'Er4 Np4 O12'
_cell_volume   291.20150883
_cell_formula_units_Z   4
loop_
 _symmetry_equiv_pos_site_id
 _symmetry_equiv_pos_as_xyz
  1  'x, y, z'
loop_
 _atom_site_type_symbol
 _atom_site_label
 _atom_site_symmetry_multiplicity
 _atom_site_fract_x
 _atom_site_fract_y
 _atom_site_fract_z
 _atom_site_occupancy
  Er  Er0  1  0.50000109  0.00000000  0.00000000  1
  Er  Er1  1  0.00000000  0.50000097  0.00000000  1
  Er  Er2  1  0.50000109  0.00000000  0.50000064  1
  Er  Er3  1  0.00000000  0.50000097  0.50000064  1
  Np  Np4  1  0.98691681  0.05563877  0.24999972  1
  Np  Np5  1  0.51308472  0.55563974  0.24999972  1
  Np  Np6  1  0.48691745  0.44436056  0.75000036  1
  Np  Np7  1  0.01308364  0.94436154  0.75000036  1
  O  O8  1  0.68384140  0.31174446  0.06479149  1
  O  O9  1  0.81616013  0.81174379  0.06479149  1
  O  O10  1  0.13128263  0.44330129  0.24999972  1
  O  O11  1  0.36871846  0.94329897  0.24999972  1
  O  O12  1  0.68384140  0.31174446  0.43520795  1
  O  O13  1  0.81616013  0.81174379  0.43520795  1
  O  O14  1  0.18384031  0.18825652  0.56479092  1
  O  O15  1  0.31615905  0.68825419  0.56479092  1
  O  O16  1  0.63128199  0.05669968  0.75000036  1
  O  O17  1  0.86871781  0.55669901  0.75000036  1
  O  O18  1  0.18384031  0.18825652  0.93520859  1
  O  O19  1  0.31615905  0.68825419  0.93520859  1
