# generated using pymatgen
data_RhPbO3
_symmetry_space_group_name_H-M   'P 1'
_cell_length_a   5.49066950
_cell_length_b   5.69359709
_cell_length_c   7.81960148
_cell_angle_alpha   90.00000000
_cell_angle_beta   90.00000000
_cell_angle_gamma   90.00000000
_symmetry_Int_Tables_number   1
_chemical_formula_structural   RhPbO3
_chemical_formula_sum   'Rh4 Pb4 O12'
_cell_volume   244.45372173
_cell_formula_units_Z   4
loop_
 _symmetry_equiv_pos_site_id
 _symmetry_equiv_pos_as_xyz
  1  'x, y, z'
loop_
 _atom_site_type_symbol
 _atom_site_label
 _atom_site_symmetry_multiplicity
 _atom_site_fract_x
 _atom_site_fract_y
 _atom_site_fract_z
 _atom_site_occupancy
  O  O0  1  0.69993832  0.29697219  0.04820450  1
  O  O1  1  0.80006272  0.79697245  0.04820450  1
  O  O2  1  0.09584259  0.45909641  0.24999995  1
  O  O3  1  0.40415836  0.95909667  0.24999995  1
  O  O4  1  0.69993832  0.29697219  0.45179540  1
  O  O5  1  0.80006272  0.79697245  0.45179540  1
  O  O6  1  0.19993737  0.20302631  0.54820441  1
  O  O7  1  0.30006177  0.70302656  0.54820441  1
  O  O8  1  0.59584173  0.04090384  0.74999986  1
  O  O9  1  0.90415750  0.54090410  0.74999986  1
  O  O10  1  0.19993737  0.20302631  0.95179531  1
  O  O11  1  0.30006177  0.70302656  0.95179531  1
  Pb  Pb12  1  0.98815454  0.04859845  0.24999995  1
  Pb  Pb13  1  0.51184468  0.54859871  0.24999995  1
  Pb  Pb14  1  0.48815541  0.45140180  0.74999986  1
  Pb  Pb15  1  0.01184555  0.95140206  0.74999986  1
  Rh  Rh16  1  0.49999913  0.00000000  0.00000000  1
  Rh  Rh17  1  0.00000000  0.50000026  0.00000000  1
  Rh  Rh18  1  0.49999913  0.00000000  0.49999991  1
  Rh  Rh19  1  0.00000000  0.50000026  0.49999991  1
