# generated using pymatgen
data_LiPuO3
_symmetry_space_group_name_H-M   'P 1'
_cell_length_a   5.51931765
_cell_length_b   5.44515001
_cell_length_c   8.06705331
_cell_angle_alpha   90.00000000
_cell_angle_beta   90.00000000
_cell_angle_gamma   90.00000000
_symmetry_Int_Tables_number   1
_chemical_formula_structural   LiPuO3
_chemical_formula_sum   'Li4 Pu4 O12'
_cell_volume   242.44328788
_cell_formula_units_Z   4
loop_
 _symmetry_equiv_pos_site_id
 _symmetry_equiv_pos_as_xyz
  1  'x, y, z'
loop_
 _atom_site_type_symbol
 _atom_site_label
 _atom_site_symmetry_multiplicity
 _atom_site_fract_x
 _atom_site_fract_y
 _atom_site_fract_z
 _atom_site_occupancy
  Li  Li0  1  0.03475067  0.01485359  0.24999959  1
  Li  Li1  1  0.46524954  0.51485267  0.24999959  1
  Li  Li2  1  0.53475089  0.48514733  0.75000000  1
  Li  Li3  1  0.96524975  0.98514825  0.75000000  1
  O  O4  1  0.63841044  0.31616392  0.07562241  1
  O  O5  1  0.86159020  0.81616484  0.07562241  1
  O  O6  1  0.12213829  0.39293132  0.24999959  1
  O  O7  1  0.37786193  0.89293224  0.24999959  1
  O  O8  1  0.63841044  0.31616392  0.42437801  1
  O  O9  1  0.86159020  0.81616484  0.42437801  1
  O  O10  1  0.13841023  0.18383332  0.57562282  1
  O  O11  1  0.36158999  0.68383424  0.57562282  1
  O  O12  1  0.62213850  0.10706776  0.75000000  1
  O  O13  1  0.87786214  0.60706867  0.75000000  1
  O  O14  1  0.13841023  0.18383332  0.92437842  1
  O  O15  1  0.36158999  0.68383424  0.92437842  1
  Pu  Pu16  1  0.50000021  0.00000000  0.00000000  1
  Pu  Pu17  1  0.00000000  0.50000092  0.00000000  1
  Pu  Pu18  1  0.50000021  0.00000000  0.50000041  1
  Pu  Pu19  1  0.00000000  0.50000092  0.50000041  1
