# generated using pymatgen
data_GdTlO3
_symmetry_space_group_name_H-M   'P 1'
_cell_length_a   5.82561156
_cell_length_b   5.90824061
_cell_length_c   8.51722620
_cell_angle_alpha   90.00000000
_cell_angle_beta   90.00000000
_cell_angle_gamma   90.00000000
_symmetry_Int_Tables_number   1
_chemical_formula_structural   GdTlO3
_chemical_formula_sum   'Gd4 Tl4 O12'
_cell_volume   293.15538610
_cell_formula_units_Z   4
loop_
 _symmetry_equiv_pos_site_id
 _symmetry_equiv_pos_as_xyz
  1  'x, y, z'
loop_
 _atom_site_type_symbol
 _atom_site_label
 _atom_site_symmetry_multiplicity
 _atom_site_fract_x
 _atom_site_fract_y
 _atom_site_fract_z
 _atom_site_occupancy
  Gd  Gd0  1  0.50000072  0.00000000  0.00000000  1
  Gd  Gd1  1  0.00000000  0.49999995  0.00000000  1
  Gd  Gd2  1  0.50000072  0.00000000  0.49999964  1
  Gd  Gd3  1  0.00000000  0.49999995  0.49999964  1
  O  O4  1  0.66641415  0.32920460  0.07382803  1
  O  O5  1  0.83358630  0.82920455  0.07382803  1
  O  O6  1  0.13204966  0.39222844  0.25000041  1
  O  O7  1  0.36794935  0.89222839  0.25000041  1
  O  O8  1  0.66641415  0.32920460  0.42617161  1
  O  O9  1  0.83358630  0.82920455  0.42617161  1
  O  O10  1  0.16641515  0.17079535  0.57382766  1
  O  O11  1  0.33358558  0.67079529  0.57382766  1
  O  O12  1  0.63205038  0.10777151  0.75000004  1
  O  O13  1  0.86795008  0.60777146  0.75000004  1
  O  O14  1  0.16641515  0.17079535  0.92617242  1
  O  O15  1  0.33358558  0.67079529  0.92617242  1
  Tl  Tl16  1  0.99306827  0.04287571  0.25000041  1
  Tl  Tl17  1  0.50692875  0.54287566  0.25000041  1
  Tl  Tl18  1  0.49306926  0.45712424  0.75000004  1
  Tl  Tl19  1  0.00693146  0.95712419  0.75000004  1
