# generated using pymatgen
data_GdTlO3
_symmetry_space_group_name_H-M   'P 1'
_cell_length_a   5.62636711
_cell_length_b   5.98432087
_cell_length_c   8.45779362
_cell_angle_alpha   90.00000000
_cell_angle_beta   90.00000000
_cell_angle_gamma   90.00000000
_symmetry_Int_Tables_number   1
_chemical_formula_structural   GdTlO3
_chemical_formula_sum   'Gd4 Tl4 O12'
_cell_volume   284.77379426
_cell_formula_units_Z   4
loop_
 _symmetry_equiv_pos_site_id
 _symmetry_equiv_pos_as_xyz
  1  'x, y, z'
loop_
 _atom_site_type_symbol
 _atom_site_label
 _atom_site_symmetry_multiplicity
 _atom_site_fract_x
 _atom_site_fract_y
 _atom_site_fract_z
 _atom_site_occupancy
  Gd  Gd0  1  0.97498615  0.06811801  0.25000019  1
  Gd  Gd1  1  0.52501373  0.56811793  0.25000019  1
  Gd  Gd2  1  0.47498678  0.43188025  0.74999938  1
  Gd  Gd3  1  0.02501436  0.93188018  0.74999938  1
  O  O4  1  0.68757689  0.31365464  0.08268705  1
  O  O5  1  0.81242299  0.81365457  0.08268705  1
  O  O6  1  0.16177579  0.41554757  0.25000019  1
  O  O7  1  0.33822358  0.91554750  0.25000019  1
  O  O8  1  0.68757689  0.31365464  0.41731215  1
  O  O9  1  0.81242299  0.81365457  0.41731215  1
  O  O10  1  0.18757574  0.18634529  0.58268624  1
  O  O11  1  0.31242362  0.68634689  0.58268624  1
  O  O12  1  0.66177694  0.08445236  0.74999938  1
  O  O13  1  0.83822294  0.58445228  0.74999938  1
  O  O14  1  0.18757574  0.18634529  0.91731252  1
  O  O15  1  0.31242362  0.68634689  0.91731252  1
  Tl  Tl16  1  0.49999937  0.00000000  0.00000000  1
  Tl  Tl17  1  0.00000000  0.49999993  0.00000000  1
  Tl  Tl18  1  0.49999937  0.00000000  0.49999919  1
  Tl  Tl19  1  0.00000000  0.49999993  0.49999919  1
