# generated using pymatgen
data_SnBiO3
_symmetry_space_group_name_H-M   'P 1'
_cell_length_a   5.70981639
_cell_length_b   6.18924450
_cell_length_c   8.28273566
_cell_angle_alpha   90.00000000
_cell_angle_beta   90.00000000
_cell_angle_gamma   90.00000000
_symmetry_Int_Tables_number   1
_chemical_formula_structural   SnBiO3
_chemical_formula_sum   'Sn4 Bi4 O12'
_cell_volume   292.70731982
_cell_formula_units_Z   4
loop_
 _symmetry_equiv_pos_site_id
 _symmetry_equiv_pos_as_xyz
  1  'x, y, z'
loop_
 _atom_site_type_symbol
 _atom_site_label
 _atom_site_symmetry_multiplicity
 _atom_site_fract_x
 _atom_site_fract_y
 _atom_site_fract_z
 _atom_site_occupancy
  Bi  Bi0  1  0.98650633  0.04115850  0.24999953  1
  Bi  Bi1  1  0.51349287  0.54115975  0.24999953  1
  Bi  Bi2  1  0.48650776  0.45884114  0.74999979  1
  Bi  Bi3  1  0.01349255  0.95884078  0.74999979  1
  O  O4  1  0.67121423  0.31293965  0.06054038  1
  O  O5  1  0.82878672  0.81294090  0.06054038  1
  O  O6  1  0.13388346  0.44850224  0.24999953  1
  O  O7  1  0.36611685  0.94850349  0.24999953  1
  O  O8  1  0.67121423  0.31293965  0.43945988  1
  O  O9  1  0.82878672  0.81294090  0.43945988  1
  O  O10  1  0.17121391  0.18705837  0.56053944  1
  O  O11  1  0.32878640  0.68705801  0.56053944  1
  O  O12  1  0.63388203  0.05149740  0.74999979  1
  O  O13  1  0.86611717  0.55149704  0.74999979  1
  O  O14  1  0.17121391  0.18705837  0.93946014  1
  O  O15  1  0.32878640  0.68705801  0.93946014  1
  Sn  Sn16  1  0.50000032  0.00000000  0.00000000  1
  Sn  Sn17  1  0.00000000  0.49999964  0.00000000  1
  Sn  Sn18  1  0.50000032  0.00000000  0.50000026  1
  Sn  Sn19  1  0.00000000  0.49999964  0.50000026  1
