# generated using pymatgen
data_PrMoO3
_symmetry_space_group_name_H-M   'P 1'
_cell_length_a   5.53093767
_cell_length_b   5.92756413
_cell_length_c   7.97418771
_cell_angle_alpha   90.00000000
_cell_angle_beta   90.00000000
_cell_angle_gamma   90.00000000
_symmetry_Int_Tables_number   1
_chemical_formula_structural   PrMoO3
_chemical_formula_sum   'Pr4 Mo4 O12'
_cell_volume   261.43364670
_cell_formula_units_Z   4
loop_
 _symmetry_equiv_pos_site_id
 _symmetry_equiv_pos_as_xyz
  1  'x, y, z'
loop_
 _atom_site_type_symbol
 _atom_site_label
 _atom_site_symmetry_multiplicity
 _atom_site_fract_x
 _atom_site_fract_y
 _atom_site_fract_z
 _atom_site_occupancy
  Mo  Mo0  1  0.50000021  0.00000000  0.00000000  1
  Mo  Mo1  1  0.00000000  0.49999965  0.00000000  1
  Mo  Mo2  1  0.50000021  0.00000000  0.49999952  1
  Mo  Mo3  1  0.00000000  0.49999965  0.49999952  1
  O  O4  1  0.68938401  0.30235523  0.05412464  1
  O  O5  1  0.81061481  0.80235488  0.05412464  1
  O  O6  1  0.10833425  0.45831474  0.25000039  1
  O  O7  1  0.39166596  0.95831439  0.25000039  1
  O  O8  1  0.68938401  0.30235523  0.44587488  1
  O  O9  1  0.81061481  0.80235488  0.44587488  1
  O  O10  1  0.18938561  0.19764442  0.55412541  1
  O  O11  1  0.31061460  0.69764408  0.55412541  1
  O  O12  1  0.60833446  0.04168660  0.74999990  1
  O  O13  1  0.89166617  0.54168625  0.74999990  1
  O  O14  1  0.18938561  0.19764442  0.94587440  1
  O  O15  1  0.31061460  0.69764408  0.94587440  1
  Pr  Pr16  1  0.98083550  0.06668169  0.25000039  1
  Pr  Pr17  1  0.51916513  0.56668134  0.25000039  1
  Pr  Pr18  1  0.48083529  0.43331965  0.74999990  1
  Pr  Pr19  1  0.01916492  0.93331930  0.74999990  1
