# generated using pymatgen
data_KIrO3
_symmetry_space_group_name_H-M   'P 1'
_cell_length_a   5.57471246
_cell_length_b   5.52122031
_cell_length_c   7.84211545
_cell_angle_alpha   90.00000000
_cell_angle_beta   90.00000000
_cell_angle_gamma   90.00000000
_symmetry_Int_Tables_number   1
_chemical_formula_structural   KIrO3
_chemical_formula_sum   'K4 Ir4 O12'
_cell_volume   241.37416257
_cell_formula_units_Z   4
loop_
 _symmetry_equiv_pos_site_id
 _symmetry_equiv_pos_as_xyz
  1  'x, y, z'
loop_
 _atom_site_type_symbol
 _atom_site_label
 _atom_site_symmetry_multiplicity
 _atom_site_fract_x
 _atom_site_fract_y
 _atom_site_fract_z
 _atom_site_occupancy
  Ir  Ir0  1  0.49999888  0.00000000  0.00000000  1
  Ir  Ir1  1  0.00000000  0.49999997  0.00000000  1
  Ir  Ir2  1  0.49999888  0.00000000  0.50000029  1
  Ir  Ir3  1  0.00000000  0.49999997  0.50000029  1
  K  K4  1  0.99935199  0.01570486  0.24999887  1
  K  K5  1  0.50065004  0.51570483  0.24999887  1
  K  K6  1  0.49935132  0.48429511  0.74999916  1
  K  K7  1  0.00064936  0.98429327  0.74999916  1
  O  O8  1  0.72211796  0.27831710  0.02280762  1
  O  O9  1  0.77788227  0.77831707  0.02280762  1
  O  O10  1  0.45607375  0.00658188  0.24999887  1
  O  O11  1  0.04392693  0.50658185  0.24999887  1
  O  O12  1  0.72211796  0.27831710  0.47719267  1
  O  O13  1  0.77788227  0.77831707  0.47719267  1
  O  O14  1  0.22211729  0.22168288  0.52280791  1
  O  O15  1  0.27788339  0.72168285  0.52280791  1
  O  O16  1  0.95607263  0.49341809  0.74999916  1
  O  O17  1  0.54392581  0.99341807  0.74999916  1
  O  O18  1  0.22211729  0.22168288  0.97719296  1
  O  O19  1  0.27788339  0.72168285  0.97719296  1
