# generated using pymatgen
data_VSbO3
_symmetry_space_group_name_H-M   'P 1'
_cell_length_a   5.30603687
_cell_length_b   5.79107934
_cell_length_c   7.68080309
_cell_angle_alpha   90.00000000
_cell_angle_beta   90.00000000
_cell_angle_gamma   90.00000000
_symmetry_Int_Tables_number   1
_chemical_formula_structural   VSbO3
_chemical_formula_sum   'V4 Sb4 O12'
_cell_volume   236.01326316
_cell_formula_units_Z   4
loop_
 _symmetry_equiv_pos_site_id
 _symmetry_equiv_pos_as_xyz
  1  'x, y, z'
loop_
 _atom_site_type_symbol
 _atom_site_label
 _atom_site_symmetry_multiplicity
 _atom_site_fract_x
 _atom_site_fract_y
 _atom_site_fract_z
 _atom_site_occupancy
  O  O0  1  0.66404929  0.31096448  0.05228229  1
  O  O1  1  0.83595160  0.81096454  0.05228229  1
  O  O2  1  0.12681593  0.46663495  0.24999990  1
  O  O3  1  0.37318437  0.96663500  0.24999990  1
  O  O4  1  0.66404929  0.31096448  0.44771751  1
  O  O5  1  0.83595160  0.81096454  0.44771751  1
  O  O6  1  0.16404899  0.18903385  0.55228209  1
  O  O7  1  0.33595130  0.68903390  0.55228209  1
  O  O8  1  0.62681623  0.03336511  0.74999970  1
  O  O9  1  0.87318466  0.53336517  0.74999970  1
  O  O10  1  0.16404899  0.18903385  0.94771730  1
  O  O11  1  0.33595130  0.68903390  0.94771730  1
  Sb  Sb12  1  0.98534559  0.03092860  0.24999990  1
  Sb  Sb13  1  0.51465530  0.53092866  0.24999990  1
  Sb  Sb14  1  0.48534529  0.46907145  0.74999970  1
  Sb  Sb15  1  0.01465501  0.96907151  0.74999970  1
  V  V16  1  0.50000030  0.00000000  0.00000000  1
  V  V17  1  0.00000000  0.50000006  0.00000000  1
  V  V18  1  0.50000030  0.00000000  0.49999980  1
  V  V19  1  0.00000000  0.50000006  0.49999980  1
