# generated using pymatgen
data_SmRuO3
_symmetry_space_group_name_H-M   'P 1'
_cell_length_a   5.29478323
_cell_length_b   5.86415315
_cell_length_c   7.70227559
_cell_angle_alpha   90.00000000
_cell_angle_beta   90.00000000
_cell_angle_gamma   90.00000000
_symmetry_Int_Tables_number   1
_chemical_formula_structural   SmRuO3
_chemical_formula_sum   'Sm4 Ru4 O12'
_cell_volume   239.15118811
_cell_formula_units_Z   4
loop_
 _symmetry_equiv_pos_site_id
 _symmetry_equiv_pos_as_xyz
  1  'x, y, z'
loop_
 _atom_site_type_symbol
 _atom_site_label
 _atom_site_symmetry_multiplicity
 _atom_site_fract_x
 _atom_site_fract_y
 _atom_site_fract_z
 _atom_site_occupancy
  O  O0  1  0.68003917  0.30610899  0.05521485  1
  O  O1  1  0.81995991  0.80610957  0.05521485  1
  O  O2  1  0.11993503  0.45600958  0.25000014  1
  O  O3  1  0.38006655  0.95601016  0.25000014  1
  O  O4  1  0.68003917  0.30610899  0.44478543  1
  O  O5  1  0.81995991  0.80610957  0.44478543  1
  O  O6  1  0.18003948  0.19388989  0.55521514  1
  O  O7  1  0.31996022  0.69389047  0.55521514  1
  O  O8  1  0.61993473  0.04398930  0.75000043  1
  O  O9  1  0.88006625  0.54398989  0.75000043  1
  O  O10  1  0.18003948  0.19388989  0.94478442  1
  O  O11  1  0.31996022  0.69389047  0.94478442  1
  Ru  Ru12  1  0.49999969  0.00000000  0.00000000  1
  Ru  Ru13  1  0.00000000  0.50000058  0.00000000  1
  Ru  Ru14  1  0.49999969  0.00000000  0.50000029  1
  Ru  Ru15  1  0.00000000  0.50000058  0.50000029  1
  Sm  Sm16  1  0.97022480  0.07897986  0.25000014  1
  Sm  Sm17  1  0.52977429  0.57898044  0.25000014  1
  Sm  Sm18  1  0.47022510  0.42102072  0.75000043  1
  Sm  Sm19  1  0.02977459  0.92101960  0.75000043  1
