# generated using pymatgen
data_PaCrO3
_symmetry_space_group_name_H-M   'P 1'
_cell_length_a   5.70531488
_cell_length_b   5.90172404
_cell_length_c   8.36100094
_cell_angle_alpha   90.00000000
_cell_angle_beta   90.00000000
_cell_angle_gamma   90.00000000
_symmetry_Int_Tables_number   1
_chemical_formula_structural   PaCrO3
_chemical_formula_sum   'Pa4 Cr4 O12'
_cell_volume   281.52488459
_cell_formula_units_Z   4
loop_
 _symmetry_equiv_pos_site_id
 _symmetry_equiv_pos_as_xyz
  1  'x, y, z'
loop_
 _atom_site_type_symbol
 _atom_site_label
 _atom_site_symmetry_multiplicity
 _atom_site_fract_x
 _atom_site_fract_y
 _atom_site_fract_z
 _atom_site_occupancy
  Cr  Cr0  1  0.99903688  0.03251592  0.24999997  1
  Cr  Cr1  1  0.50096096  0.53251558  0.24999997  1
  Cr  Cr2  1  0.49903819  0.46748204  0.74999992  1
  Cr  Cr3  1  0.00096051  0.96748339  0.74999992  1
  O  O4  1  0.67306890  0.32034876  0.06702308  1
  O  O5  1  0.82693070  0.82034842  0.06702308  1
  O  O6  1  0.12187934  0.43294298  0.24999997  1
  O  O7  1  0.37812111  0.93294433  0.24999997  1
  O  O8  1  0.67306890  0.32034876  0.43297806  1
  O  O9  1  0.82693070  0.82034842  0.43297806  1
  O  O10  1  0.17307020  0.17965089  0.56702182  1
  O  O11  1  0.32693200  0.67965055  0.56702182  1
  O  O12  1  0.62187979  0.06705668  0.74999992  1
  O  O13  1  0.87811981  0.56705803  0.74999992  1
  O  O14  1  0.17307020  0.17965089  0.93297801  1
  O  O15  1  0.32693200  0.67965055  0.93297801  1
  Pa  Pa16  1  0.49999870  0.00000000  0.00000000  1
  Pa  Pa17  1  0.00000000  0.49999966  0.00000000  1
  Pa  Pa18  1  0.49999870  0.00000000  0.49999994  1
  Pa  Pa19  1  0.00000000  0.49999966  0.49999994  1
