# generated using pymatgen
data_PuWO3
_symmetry_space_group_name_H-M   'P 1'
_cell_length_a   5.35123598
_cell_length_b   5.99047319
_cell_length_c   7.82793033
_cell_angle_alpha   90.00000000
_cell_angle_beta   90.00000000
_cell_angle_gamma   90.00000000
_symmetry_Int_Tables_number   1
_chemical_formula_structural   PuWO3
_chemical_formula_sum   'Pu4 W4 O12'
_cell_volume   250.93554507
_cell_formula_units_Z   4
loop_
 _symmetry_equiv_pos_site_id
 _symmetry_equiv_pos_as_xyz
  1  'x, y, z'
loop_
 _atom_site_type_symbol
 _atom_site_label
 _atom_site_symmetry_multiplicity
 _atom_site_fract_x
 _atom_site_fract_y
 _atom_site_fract_z
 _atom_site_occupancy
  O  O0  1  0.68984810  0.29555929  0.04408700  1
  O  O1  1  0.81015302  0.79555986  0.04408700  1
  O  O2  1  0.10074869  0.47470540  0.24999967  1
  O  O3  1  0.39925169  0.97470430  0.24999967  1
  O  O4  1  0.68984810  0.29555929  0.45591361  1
  O  O5  1  0.81015302  0.79555986  0.45591361  1
  O  O6  1  0.18984773  0.20444128  0.54408762  1
  O  O7  1  0.31015265  0.70444185  0.54408762  1
  O  O8  1  0.60074906  0.02529349  0.74999901  1
  O  O9  1  0.89925206  0.52529239  0.74999901  1
  O  O10  1  0.18984773  0.20444128  0.95591295  1
  O  O11  1  0.31015265  0.70444185  0.95591295  1
  Pu  Pu12  1  0.97086356  0.07905386  0.24999967  1
  Pu  Pu13  1  0.52913570  0.57905442  0.24999967  1
  Pu  Pu14  1  0.47086505  0.42094838  0.74999901  1
  Pu  Pu15  1  0.02913719  0.92094728  0.74999901  1
  W  W16  1  0.50000038  0.00000000  0.00000000  1
  W  W17  1  0.00000000  0.50000057  0.00000000  1
  W  W18  1  0.50000038  0.00000000  0.50000062  1
  W  W19  1  0.00000000  0.50000057  0.50000062  1
