# generated using pymatgen
data_CaAgO3
_symmetry_space_group_name_H-M   'P 1'
_cell_length_a   3.95979927
_cell_length_b   3.95979927
_cell_length_c   4.17034386
_cell_angle_alpha   90.00000000
_cell_angle_beta   90.00000000
_cell_angle_gamma   90.00000000
_symmetry_Int_Tables_number   1
_chemical_formula_structural   CaAgO3
_chemical_formula_sum   'Ca1 Ag1 O3'
_cell_volume   65.39103449
_cell_formula_units_Z   1
loop_
 _symmetry_equiv_pos_site_id
 _symmetry_equiv_pos_as_xyz
  1  'x, y, z'
loop_
 _atom_site_type_symbol
 _atom_site_label
 _atom_site_symmetry_multiplicity
 _atom_site_fract_x
 _atom_site_fract_y
 _atom_site_fract_z
 _atom_site_occupancy
  Ag  Ag0  1  0.50000009  0.50000009  0.55680061  1
  Ca  Ca1  1  0.00000000  0.00000000  0.98374382  1
  O  O2  1  0.50000009  0.50000009  0.06936838  1
  O  O3  1  0.50000009  0.00000000  0.64504273  1
  O  O4  1  0.00000000  0.50000009  0.64504273  1
