# generated using pymatgen
data_NdHfO3
_symmetry_space_group_name_H-M   'P 1'
_cell_length_a   5.62794517
_cell_length_b   5.93995751
_cell_length_c   7.99618562
_cell_angle_alpha   90.00000000
_cell_angle_beta   90.00000000
_cell_angle_gamma   90.00000000
_symmetry_Int_Tables_number   1
_chemical_formula_structural   NdHfO3
_chemical_formula_sum   'Nd4 Hf4 O12'
_cell_volume   267.31052797
_cell_formula_units_Z   4
loop_
 _symmetry_equiv_pos_site_id
 _symmetry_equiv_pos_as_xyz
  1  'x, y, z'
loop_
 _atom_site_type_symbol
 _atom_site_label
 _atom_site_symmetry_multiplicity
 _atom_site_fract_x
 _atom_site_fract_y
 _atom_site_fract_z
 _atom_site_occupancy
  Hf  Hf0  1  0.49999954  0.00000000  0.00000000  1
  Hf  Hf1  1  0.00000000  0.49999853  0.00000000  1
  Hf  Hf2  1  0.49999954  0.00000000  0.49999965  1
  Hf  Hf3  1  0.00000000  0.49999853  0.49999965  1
  Nd  Nd4  1  0.99248835  0.06975302  0.25000045  1
  Nd  Nd5  1  0.50751205  0.56975323  0.25000045  1
  Nd  Nd6  1  0.49248881  0.43024719  0.75000010  1
  Nd  Nd7  1  0.00751073  0.93024739  0.75000010  1
  O  O8  1  0.68763641  0.30266210  0.04861818  1
  O  O9  1  0.81236399  0.80266231  0.04861818  1
  O  O10  1  0.10178138  0.46117333  0.25000045  1
  O  O11  1  0.39821816  0.96117186  0.25000045  1
  O  O12  1  0.68763641  0.30266210  0.45138272  1
  O  O13  1  0.81236399  0.80266231  0.45138272  1
  O  O14  1  0.18763687  0.19733811  0.54861783  1
  O  O15  1  0.31236445  0.69733832  0.54861783  1
  O  O16  1  0.60178269  0.03882856  0.75000010  1
  O  O17  1  0.89821771  0.53882709  0.75000010  1
  O  O18  1  0.18763687  0.19733811  0.95138237  1
  O  O19  1  0.31236445  0.69733832  0.95138237  1
