# generated using pymatgen
data_AcRhO3
_symmetry_space_group_name_H-M   'P 1'
_cell_length_a   5.63451491
_cell_length_b   5.83650228
_cell_length_c   8.04601980
_cell_angle_alpha   90.00000000
_cell_angle_beta   90.00000000
_cell_angle_gamma   90.00000000
_symmetry_Int_Tables_number   1
_chemical_formula_structural   AcRhO3
_chemical_formula_sum   'Ac4 Rh4 O12'
_cell_volume   264.60027347
_cell_formula_units_Z   4
loop_
 _symmetry_equiv_pos_site_id
 _symmetry_equiv_pos_as_xyz
  1  'x, y, z'
loop_
 _atom_site_type_symbol
 _atom_site_label
 _atom_site_symmetry_multiplicity
 _atom_site_fract_x
 _atom_site_fract_y
 _atom_site_fract_z
 _atom_site_occupancy
  Ac  Ac0  1  0.98774430  0.05709070  0.25000063  1
  Ac  Ac1  1  0.51225528  0.55708879  0.25000063  1
  Ac  Ac2  1  0.48774563  0.44290910  0.74999940  1
  Ac  Ac3  1  0.01225483  0.94291062  0.74999940  1
  O  O4  1  0.69840262  0.29678392  0.04395217  1
  O  O5  1  0.80159873  0.79678372  0.04395217  1
  O  O6  1  0.08587075  0.48213123  0.25000063  1
  O  O7  1  0.41412971  0.98212932  0.25000063  1
  O  O8  1  0.69840262  0.29678392  0.45604785  1
  O  O9  1  0.80159873  0.79678372  0.45604785  1
  O  O10  1  0.19840217  0.20321589  0.54395218  1
  O  O11  1  0.30159828  0.70321569  0.54395218  1
  O  O12  1  0.58587120  0.01787029  0.74999940  1
  O  O13  1  0.91413016  0.51787010  0.74999940  1
  O  O14  1  0.19840217  0.20321589  0.95604786  1
  O  O15  1  0.30159828  0.70321569  0.95604786  1
  Rh  Rh16  1  0.50000045  0.00000000  0.00000000  1
  Rh  Rh17  1  0.00000000  0.49999980  0.00000000  1
  Rh  Rh18  1  0.50000045  0.00000000  0.50000001  1
  Rh  Rh19  1  0.00000000  0.49999980  0.50000001  1
