# generated using pymatgen
data_YbSbO3
_symmetry_space_group_name_H-M   'P 1'
_cell_length_a   5.54312268
_cell_length_b   5.83032118
_cell_length_c   8.01558213
_cell_angle_alpha   90.00000000
_cell_angle_beta   90.00000000
_cell_angle_gamma   90.00000000
_symmetry_Int_Tables_number   1
_chemical_formula_structural   YbSbO3
_chemical_formula_sum   'Yb4 Sb4 O12'
_cell_volume   259.04907029
_cell_formula_units_Z   4
loop_
 _symmetry_equiv_pos_site_id
 _symmetry_equiv_pos_as_xyz
  1  'x, y, z'
loop_
 _atom_site_type_symbol
 _atom_site_label
 _atom_site_symmetry_multiplicity
 _atom_site_fract_x
 _atom_site_fract_y
 _atom_site_fract_z
 _atom_site_occupancy
  O  O0  1  0.69218024  0.30327146  0.06293492  1
  O  O1  1  0.80781903  0.80327136  0.06293492  1
  O  O2  1  0.12323198  0.44798733  0.24999931  1
  O  O3  1  0.37676778  0.94798894  0.24999931  1
  O  O4  1  0.69218024  0.30327146  0.43706495  1
  O  O5  1  0.80781903  0.80327136  0.43706495  1
  O  O6  1  0.19218048  0.19672844  0.56293478  1
  O  O7  1  0.30781927  0.69672834  0.56293478  1
  O  O8  1  0.62323174  0.05201257  0.74999918  1
  O  O9  1  0.87676753  0.55201247  0.74999918  1
  O  O10  1  0.19218048  0.19672844  0.93706606  1
  O  O11  1  0.30781927  0.69672834  0.93706606  1
  Sb  Sb12  1  0.49999976  0.00000000  0.00000000  1
  Sb  Sb13  1  0.00000000  0.49999990  0.00000000  1
  Sb  Sb14  1  0.49999976  0.00000000  0.49999987  1
  Sb  Sb15  1  0.00000000  0.49999990  0.49999987  1
  Yb  Yb16  1  0.98054658  0.06200688  0.24999931  1
  Yb  Yb17  1  0.51945450  0.56200849  0.24999931  1
  Yb  Yb18  1  0.48054682  0.43799302  0.74999918  1
  Yb  Yb19  1  0.01945293  0.93799121  0.74999918  1
