# generated using pymatgen
data_SmPdO3
_symmetry_space_group_name_H-M   'P 1'
_cell_length_a   5.46634592
_cell_length_b   5.93144069
_cell_length_c   7.64208793
_cell_angle_alpha   90.00000000
_cell_angle_beta   90.00000000
_cell_angle_gamma   90.00000000
_symmetry_Int_Tables_number   1
_chemical_formula_structural   SmPdO3
_chemical_formula_sum   'Sm4 Pd4 O12'
_cell_volume   247.78175992
_cell_formula_units_Z   4
loop_
 _symmetry_equiv_pos_site_id
 _symmetry_equiv_pos_as_xyz
  1  'x, y, z'
loop_
 _atom_site_type_symbol
 _atom_site_label
 _atom_site_symmetry_multiplicity
 _atom_site_fract_x
 _atom_site_fract_y
 _atom_site_fract_z
 _atom_site_occupancy
  O  O0  1  0.68492555  0.30709403  0.05652120  1
  O  O1  1  0.81507282  0.80709397  0.05652120  1
  O  O2  1  0.12733369  0.45228304  0.24999974  1
  O  O3  1  0.37266577  0.95228298  0.24999974  1
  O  O4  1  0.68492555  0.30709403  0.44347828  1
  O  O5  1  0.81507282  0.80709397  0.44347828  1
  O  O6  1  0.18492609  0.19290592  0.55652199  1
  O  O7  1  0.31507336  0.69290586  0.55652199  1
  O  O8  1  0.62733315  0.04771691  0.75000053  1
  O  O9  1  0.87266706  0.54771685  0.75000053  1
  O  O10  1  0.18492609  0.19290592  0.94347907  1
  O  O11  1  0.31507336  0.69290586  0.94347907  1
  Pd  Pd12  1  0.49999946  0.00000000  0.00000000  1
  Pd  Pd13  1  0.00000000  0.49999994  0.00000000  1
  Pd  Pd14  1  0.49999946  0.00000000  0.49999948  1
  Pd  Pd15  1  0.00000000  0.49999994  0.49999948  1
  Sm  Sm16  1  0.97338150  0.08099381  0.24999974  1
  Sm  Sm17  1  0.52661870  0.58099376  0.24999974  1
  Sm  Sm18  1  0.47338204  0.41900613  0.75000053  1
  Sm  Sm19  1  0.02661742  0.91900607  0.75000053  1
