# generated using pymatgen
data_AcYO3
_symmetry_space_group_name_H-M   'P 1'
_cell_length_a   5.99294176
_cell_length_b   6.18290609
_cell_length_c   8.60323214
_cell_angle_alpha   90.00000000
_cell_angle_beta   90.00000000
_cell_angle_gamma   90.00000000
_symmetry_Int_Tables_number   1
_chemical_formula_structural   AcYO3
_chemical_formula_sum   'Ac4 Y4 O12'
_cell_volume   318.78240918
_cell_formula_units_Z   4
loop_
 _symmetry_equiv_pos_site_id
 _symmetry_equiv_pos_as_xyz
  1  'x, y, z'
loop_
 _atom_site_type_symbol
 _atom_site_label
 _atom_site_symmetry_multiplicity
 _atom_site_fract_x
 _atom_site_fract_y
 _atom_site_fract_z
 _atom_site_occupancy
  Ac  Ac0  1  0.98629358  0.04825886  0.25000023  1
  Ac  Ac1  1  0.51370598  0.54825837  0.25000023  1
  Ac  Ac2  1  0.48629373  0.45174065  0.75000069  1
  Ac  Ac3  1  0.01370612  0.95174177  0.75000069  1
  O  O4  1  0.69602212  0.30268129  0.06236726  1
  O  O5  1  0.80397744  0.80268242  0.06236726  1
  O  O6  1  0.11675401  0.44823097  0.25000023  1
  O  O7  1  0.38324584  0.94823048  0.25000023  1
  O  O8  1  0.69602212  0.30268129  0.43763320  1
  O  O9  1  0.80397744  0.80268242  0.43763320  1
  O  O10  1  0.19602393  0.19731822  0.56236655  1
  O  O11  1  0.30397759  0.69731934  0.56236655  1
  O  O12  1  0.61675387  0.05177015  0.75000069  1
  O  O13  1  0.88324569  0.55176966  0.75000069  1
  O  O14  1  0.19602393  0.19731822  0.93763366  1
  O  O15  1  0.30397759  0.69731934  0.93763366  1
  Y  Y16  1  0.49999985  0.00000000  0.00000000  1
  Y  Y17  1  0.00000000  0.49999951  0.00000000  1
  Y  Y18  1  0.49999985  0.00000000  0.50000046  1
  Y  Y19  1  0.00000000  0.49999951  0.50000046  1
