# generated using pymatgen
data_CsRhO3
_symmetry_space_group_name_H-M   'P 1'
_cell_length_a   5.76182336
_cell_length_b   5.76880552
_cell_length_c   8.13049865
_cell_angle_alpha   90.00000000
_cell_angle_beta   90.00000000
_cell_angle_gamma   90.00000000
_symmetry_Int_Tables_number   1
_chemical_formula_structural   CsRhO3
_chemical_formula_sum   'Cs4 Rh4 O12'
_cell_volume   270.24833099
_cell_formula_units_Z   4
loop_
 _symmetry_equiv_pos_site_id
 _symmetry_equiv_pos_as_xyz
  1  'x, y, z'
loop_
 _atom_site_type_symbol
 _atom_site_label
 _atom_site_symmetry_multiplicity
 _atom_site_fract_x
 _atom_site_fract_y
 _atom_site_fract_z
 _atom_site_occupancy
  Cs  Cs0  1  0.49945648  0.49948468  0.24999943  1
  Cs  Cs1  1  0.00054323  0.99948247  0.24999943  1
  Cs  Cs2  1  0.99945619  0.00051657  0.74999951  1
  Cs  Cs3  1  0.50054294  0.50051609  0.74999951  1
  O  O4  1  0.24901492  0.24950572  0.00096058  1
  O  O5  1  0.25098479  0.74950525  0.00096058  1
  O  O6  1  0.99651788  0.49797137  0.24999943  1
  O  O7  1  0.50348124  0.99797089  0.24999943  1
  O  O8  1  0.24901492  0.24950572  0.49903950  1
  O  O9  1  0.25098479  0.74950525  0.49903950  1
  O  O10  1  0.74901463  0.25049380  0.50096066  1
  O  O11  1  0.75098449  0.75049505  0.50096066  1
  O  O12  1  0.49651817  0.00202988  0.74999951  1
  O  O13  1  0.00348154  0.50202940  0.74999951  1
  O  O14  1  0.74901463  0.25049380  0.99903836  1
  O  O15  1  0.75098449  0.75049505  0.99903836  1
  Rh  Rh16  1  0.49999971  0.00000000  0.00000000  1
  Rh  Rh17  1  0.00000000  0.49999952  0.00000000  1
  Rh  Rh18  1  0.49999971  0.00000000  0.50000008  1
  Rh  Rh19  1  0.00000000  0.49999952  0.50000008  1
