# generated using pymatgen
data_SrTbO3
_symmetry_space_group_name_H-M   'P 1'
_cell_length_a   4.30615803
_cell_length_b   4.30615803
_cell_length_c   4.47668336
_cell_angle_alpha   90.00000000
_cell_angle_beta   90.00000000
_cell_angle_gamma   90.00000000
_symmetry_Int_Tables_number   1
_chemical_formula_structural   SrTbO3
_chemical_formula_sum   'Sr1 Tb1 O3'
_cell_volume   83.01112610
_cell_formula_units_Z   1
loop_
 _symmetry_equiv_pos_site_id
 _symmetry_equiv_pos_as_xyz
  1  'x, y, z'
loop_
 _atom_site_type_symbol
 _atom_site_label
 _atom_site_symmetry_multiplicity
 _atom_site_fract_x
 _atom_site_fract_y
 _atom_site_fract_z
 _atom_site_occupancy
  O  O0  1  0.50000255  0.50000255  0.07269668  1
  O  O1  1  0.50000255  0.00000000  0.65029616  1
  O  O2  1  0.00000000  0.50000255  0.65029616  1
  Sr  Sr3  1  0.00000000  0.00000000  0.96834188  1
  Tb  Tb4  1  0.50000255  0.50000255  0.55836873  1
