# generated using pymatgen
data_TmZnO3
_symmetry_space_group_name_H-M   'P 1'
_cell_length_a   5.18651960
_cell_length_b   5.73652611
_cell_length_c   7.38466087
_cell_angle_alpha   90.00000000
_cell_angle_beta   90.00000000
_cell_angle_gamma   90.00000000
_symmetry_Int_Tables_number   1
_chemical_formula_structural   TmZnO3
_chemical_formula_sum   'Tm4 Zn4 O12'
_cell_volume   219.71289883
_cell_formula_units_Z   4
loop_
 _symmetry_equiv_pos_site_id
 _symmetry_equiv_pos_as_xyz
  1  'x, y, z'
loop_
 _atom_site_type_symbol
 _atom_site_label
 _atom_site_symmetry_multiplicity
 _atom_site_fract_x
 _atom_site_fract_y
 _atom_site_fract_z
 _atom_site_occupancy
  O  O0  1  0.68958960  0.32012580  0.05936766  1
  O  O1  1  0.81041051  0.82012701  0.05936766  1
  O  O2  1  0.12735130  0.45700829  0.24999929  1
  O  O3  1  0.37264874  0.95700776  0.24999929  1
  O  O4  1  0.68958960  0.32012580  0.44063229  1
  O  O5  1  0.81041051  0.82012701  0.44063229  1
  O  O6  1  0.18958957  0.17987367  0.55936624  1
  O  O7  1  0.31041047  0.67987314  0.55936624  1
  O  O8  1  0.62735134  0.04299118  0.74999923  1
  O  O9  1  0.87264878  0.54299064  0.74999923  1
  O  O10  1  0.18958957  0.17987367  0.94063358  1
  O  O11  1  0.31041047  0.67987314  0.94063358  1
  Tm  Tm12  1  0.97458997  0.08923170  0.24999929  1
  Tm  Tm13  1  0.52541014  0.58923117  0.24999929  1
  Tm  Tm14  1  0.47458993  0.41076776  0.74999923  1
  Tm  Tm15  1  0.02541010  0.91076897  0.74999923  1
  Zn  Zn16  1  0.50000004  0.00000000  0.00000000  1
  Zn  Zn17  1  0.00000000  0.49999947  0.00000000  1
  Zn  Zn18  1  0.50000004  0.00000000  0.49999994  1
  Zn  Zn19  1  0.00000000  0.49999947  0.49999994  1
