# generated using pymatgen
data_TiCdO3
_symmetry_space_group_name_H-M   'P 1'
_cell_length_a   5.35976500
_cell_length_b   5.49431800
_cell_length_c   7.81224500
_cell_angle_alpha   90.00000000
_cell_angle_beta   90.00000000
_cell_angle_gamma   90.00000000
_symmetry_Int_Tables_number   1
_chemical_formula_structural   TiCdO3
_chemical_formula_sum   'Ti4 Cd4 O12'
_cell_volume   230.05696972
_cell_formula_units_Z   4
loop_
 _symmetry_equiv_pos_site_id
 _symmetry_equiv_pos_as_xyz
  1  'x, y, z'
loop_
 _atom_site_type_symbol
 _atom_site_label
 _atom_site_symmetry_multiplicity
 _atom_site_fract_x
 _atom_site_fract_y
 _atom_site_fract_z
 _atom_site_occupancy
  Ti  Ti0  1  0.49865500  0.01005600  0.51029000  1
  Ti  Ti1  1  0.50134500  0.98994400  0.01029000  1
  Ti  Ti2  1  0.00134500  0.51005600  0.51029000  1
  Ti  Ti3  1  0.99865500  0.48994400  0.01029000  1
  Cd  Cd4  1  0.51081600  0.46279100  0.75809400  1
  Cd  Cd5  1  0.48918400  0.53720900  0.25809400  1
  Cd  Cd6  1  0.98918400  0.96279100  0.75809400  1
  Cd  Cd7  1  0.01081600  0.03720900  0.25809400  1
  O  O8  1  0.79306000  0.22142100  0.94411400  1
  O  O9  1  0.20694000  0.77857900  0.44411400  1
  O  O10  1  0.70694000  0.72142100  0.94411400  1
  O  O11  1  0.29306000  0.27857900  0.44411400  1
  O  O12  1  0.80190000  0.18936700  0.54110700  1
  O  O13  1  0.19810000  0.81063300  0.04110700  1
  O  O14  1  0.69810000  0.68936700  0.54110700  1
  O  O15  1  0.30190000  0.31063300  0.04110700  1
  O  O16  1  0.90672700  0.47028000  0.24149500  1
  O  O17  1  0.09327300  0.52972000  0.74149500  1
  O  O18  1  0.59327300  0.97028000  0.24149500  1
  O  O19  1  0.40672700  0.02972000  0.74149500  1
