# generated using pymatgen
data_YScO3
_symmetry_space_group_name_H-M   'P 1'
_cell_length_a   5.46844800
_cell_length_b   5.76218000
_cell_length_c   7.99589900
_cell_angle_alpha   90.00000000
_cell_angle_beta   90.00000000
_cell_angle_gamma   90.00000000
_symmetry_Int_Tables_number   1
_chemical_formula_structural   YScO3
_chemical_formula_sum   'Y4 Sc4 O12'
_cell_volume   251.95223032
_cell_formula_units_Z   4
loop_
 _symmetry_equiv_pos_site_id
 _symmetry_equiv_pos_as_xyz
  1  'x, y, z'
loop_
 _atom_site_type_symbol
 _atom_site_label
 _atom_site_symmetry_multiplicity
 _atom_site_fract_x
 _atom_site_fract_y
 _atom_site_fract_z
 _atom_site_occupancy
  Y  Y0  1  0.98034800  0.93742400  0.75000000  1
  Y  Y1  1  0.48034800  0.56257600  0.25000000  1
  Y  Y2  1  0.51965200  0.43742400  0.75000000  1
  Y  Y3  1  0.01965200  0.06257600  0.25000000  1
  Sc  Sc4  1  0.50000000  0.00000000  0.00000000  1
  Sc  Sc5  1  0.00000000  0.50000000  0.50000000  1
  Sc  Sc6  1  0.00000000  0.50000000  0.00000000  1
  Sc  Sc7  1  0.50000000  0.00000000  0.50000000  1
  O  O8  1  0.62895000  0.94377900  0.25000000  1
  O  O9  1  0.19008500  0.80815000  0.43396800  1
  O  O10  1  0.19008500  0.80815000  0.06603200  1
  O  O11  1  0.69008500  0.69185000  0.56603200  1
  O  O12  1  0.69008500  0.69185000  0.93396800  1
  O  O13  1  0.12895000  0.55622100  0.75000000  1
  O  O14  1  0.87105000  0.44377900  0.25000000  1
  O  O15  1  0.30991500  0.30815000  0.43396800  1
  O  O16  1  0.30991500  0.30815000  0.06603200  1
  O  O17  1  0.80991500  0.19185000  0.56603200  1
  O  O18  1  0.80991500  0.19185000  0.93396800  1
  O  O19  1  0.37105000  0.05622100  0.75000000  1
