# generated using pymatgen
data_MnTlCl3
_symmetry_space_group_name_H-M   'P 1'
_cell_length_a   7.12493200
_cell_length_b   7.14247000
_cell_length_c   10.16815000
_cell_angle_alpha   90.00000000
_cell_angle_beta   90.00000000
_cell_angle_gamma   90.00000000
_symmetry_Int_Tables_number   1
_chemical_formula_structural   MnTlCl3
_chemical_formula_sum   'Mn4 Tl4 Cl12'
_cell_volume   517.45321906
_cell_formula_units_Z   4
loop_
 _symmetry_equiv_pos_site_id
 _symmetry_equiv_pos_as_xyz
  1  'x, y, z'
loop_
 _atom_site_type_symbol
 _atom_site_label
 _atom_site_symmetry_multiplicity
 _atom_site_fract_x
 _atom_site_fract_y
 _atom_site_fract_z
 _atom_site_occupancy
  Mn  Mn0  1  0.00000000  0.50000000  0.50000000  1
  Mn  Mn1  1  0.50000000  0.00000000  0.00000000  1
  Mn  Mn2  1  0.50000000  0.00000000  0.50000000  1
  Mn  Mn3  1  0.00000000  0.50000000  0.00000000  1
  Tl  Tl4  1  0.01437300  0.99964600  0.75000000  1
  Tl  Tl5  1  0.51437300  0.50035400  0.75000000  1
  Tl  Tl6  1  0.48562700  0.49964600  0.25000000  1
  Tl  Tl7  1  0.98562700  0.00035400  0.25000000  1
  Cl  Cl8  1  0.71957900  0.28055700  0.48123400  1
  Cl  Cl9  1  0.21957900  0.21944300  0.01876600  1
  Cl  Cl10  1  0.78042100  0.78055700  0.51876600  1
  Cl  Cl11  1  0.28042100  0.71944300  0.98123400  1
  Cl  Cl12  1  0.28042100  0.71944300  0.51876600  1
  Cl  Cl13  1  0.78042100  0.78055700  0.98123400  1
  Cl  Cl14  1  0.21957900  0.21944300  0.48123400  1
  Cl  Cl15  1  0.71957900  0.28055700  0.01876600  1
  Cl  Cl16  1  0.50221900  0.96182300  0.25000000  1
  Cl  Cl17  1  0.00221900  0.53817700  0.25000000  1
  Cl  Cl18  1  0.99778100  0.46182300  0.75000000  1
  Cl  Cl19  1  0.49778100  0.03817700  0.75000000  1
