# generated using pymatgen
data_PmTiO3
_symmetry_space_group_name_H-M   'P 1'
_cell_length_a   5.42227420
_cell_length_b   5.69927889
_cell_length_c   7.76357890
_cell_angle_alpha   90.00000000
_cell_angle_beta   90.00000000
_cell_angle_gamma   90.00000000
_symmetry_Int_Tables_number   1
_chemical_formula_structural   PmTiO3
_chemical_formula_sum   'Pm4 Ti4 O12'
_cell_volume   239.91828919
_cell_formula_units_Z   4
loop_
 _symmetry_equiv_pos_site_id
 _symmetry_equiv_pos_as_xyz
  1  'x, y, z'
loop_
 _atom_site_type_symbol
 _atom_site_label
 _atom_site_symmetry_multiplicity
 _atom_site_fract_x
 _atom_site_fract_y
 _atom_site_fract_z
 _atom_site_occupancy
  O  O0  1  0.69644578  0.29813070  0.05020751  1
  O  O1  1  0.80355398  0.79813080  0.05020751  1
  O  O2  1  0.10087280  0.46878913  0.24999939  1
  O  O3  1  0.39912773  0.96878923  0.24999939  1
  O  O4  1  0.69644578  0.29813070  0.44979256  1
  O  O5  1  0.80355398  0.79813080  0.44979256  1
  O  O6  1  0.19644709  0.20186940  0.55020759  1
  O  O7  1  0.30355344  0.70186950  0.55020759  1
  O  O8  1  0.60087334  0.03120921  0.74999946  1
  O  O9  1  0.89912827  0.53121106  0.74999946  1
  O  O10  1  0.19644709  0.20186940  0.94979263  1
  O  O11  1  0.30355344  0.70186950  0.94979263  1
  Pm  Pm12  1  0.98362602  0.06420461  0.24999939  1
  Pm  Pm13  1  0.51637374  0.56420296  0.24999939  1
  Pm  Pm14  1  0.48362733  0.43579548  0.74999946  1
  Pm  Pm15  1  0.01637320  0.93579558  0.74999946  1
  Ti  Ti16  1  0.49999869  0.00000000  0.00000000  1
  Ti  Ti17  1  0.00000000  0.50000010  0.00000000  1
  Ti  Ti18  1  0.49999869  0.00000000  0.50000007  1
  Ti  Ti19  1  0.00000000  0.50000010  0.50000007  1
