# generated using pymatgen
data_AgSnO3
_symmetry_space_group_name_H-M   'P 1'
_cell_length_a   5.39175711
_cell_length_b   5.66143919
_cell_length_c   8.02979767
_cell_angle_alpha   90.00000000
_cell_angle_beta   90.00000000
_cell_angle_gamma   90.00000000
_symmetry_Int_Tables_number   1
_chemical_formula_structural   AgSnO3
_chemical_formula_sum   'Ag4 Sn4 O12'
_cell_volume   245.11041728
_cell_formula_units_Z   4
loop_
 _symmetry_equiv_pos_site_id
 _symmetry_equiv_pos_as_xyz
  1  'x, y, z'
loop_
 _atom_site_type_symbol
 _atom_site_label
 _atom_site_symmetry_multiplicity
 _atom_site_fract_x
 _atom_site_fract_y
 _atom_site_fract_z
 _atom_site_occupancy
  Ag  Ag0  1  0.98550248  0.07421611  0.25000007  1
  Ag  Ag1  1  0.51449647  0.57421618  0.25000007  1
  Ag  Ag2  1  0.48550221  0.42578396  0.75000022  1
  Ag  Ag3  1  0.01449620  0.92578403  0.75000022  1
  O  O4  1  0.70097742  0.29186748  0.07060576  1
  O  O5  1  0.79902153  0.79186755  0.07060576  1
  O  O6  1  0.13552354  0.43507135  0.25000007  1
  O  O7  1  0.36447673  0.93507142  0.25000007  1
  O  O8  1  0.70097742  0.29186748  0.42939314  1
  O  O9  1  0.79902153  0.79186755  0.42939314  1
  O  O10  1  0.20097901  0.20813082  0.57060591  1
  O  O11  1  0.29902126  0.70813266  0.57060591  1
  O  O12  1  0.63552195  0.06492872  0.75000022  1
  O  O13  1  0.86447700  0.56492879  0.75000022  1
  O  O14  1  0.20097901  0.20813082  0.92939328  1
  O  O15  1  0.29902126  0.70813266  0.92939328  1
  Sn  Sn16  1  0.50000027  0.00000000  0.00000000  1
  Sn  Sn17  1  0.00000000  0.50000007  0.00000000  1
  Sn  Sn18  1  0.50000027  0.00000000  0.50000015  1
  Sn  Sn19  1  0.00000000  0.50000007  0.50000015  1
