# generated using pymatgen
data_NdZnO3
_symmetry_space_group_name_H-M   'P 1'
_cell_length_a   5.39456717
_cell_length_b   5.74971204
_cell_length_c   7.71060211
_cell_angle_alpha   90.00000000
_cell_angle_beta   90.00000000
_cell_angle_gamma   90.00000000
_symmetry_Int_Tables_number   1
_chemical_formula_structural   NdZnO3
_chemical_formula_sum   'Nd4 Zn4 O12'
_cell_volume   239.16134815
_cell_formula_units_Z   4
loop_
 _symmetry_equiv_pos_site_id
 _symmetry_equiv_pos_as_xyz
  1  'x, y, z'
loop_
 _atom_site_type_symbol
 _atom_site_label
 _atom_site_symmetry_multiplicity
 _atom_site_fract_x
 _atom_site_fract_y
 _atom_site_fract_z
 _atom_site_occupancy
  Nd  Nd0  1  0.98218816  0.07040526  0.24999993  1
  Nd  Nd1  1  0.51781170  0.57040596  0.24999993  1
  Nd  Nd2  1  0.48218697  0.42959369  0.74999980  1
  Nd  Nd3  1  0.01781051  0.92959438  0.74999980  1
  O  O4  1  0.70529106  0.30565357  0.04680439  1
  O  O5  1  0.79470880  0.80565252  0.04680439  1
  O  O6  1  0.09021113  0.48014752  0.24999993  1
  O  O7  1  0.40978635  0.98014822  0.24999993  1
  O  O8  1  0.70529106  0.30565357  0.45319548  1
  O  O9  1  0.79470880  0.80565252  0.45319548  1
  O  O10  1  0.20529172  0.19434712  0.54680425  1
  O  O11  1  0.29470946  0.69434608  0.54680425  1
  O  O12  1  0.59021232  0.01985143  0.74999980  1
  O  O13  1  0.90978754  0.51985386  0.74999980  1
  O  O14  1  0.20529172  0.19434712  0.95319534  1
  O  O15  1  0.29470946  0.69434608  0.95319534  1
  Zn  Zn16  1  0.50000119  0.00000000  0.00000000  1
  Zn  Zn17  1  0.00000000  0.50000069  0.00000000  1
  Zn  Zn18  1  0.50000119  0.00000000  0.49999986  1
  Zn  Zn19  1  0.00000000  0.50000069  0.49999986  1
