# generated using pymatgen
data_MgTeO3
_symmetry_space_group_name_H-M   'P 1'
_cell_length_a   6.11652500
_cell_length_b   7.91836800
_cell_length_c   5.21134500
_cell_angle_alpha   90.00000000
_cell_angle_beta   90.00000000
_cell_angle_gamma   90.00000000
_symmetry_Int_Tables_number   1
_chemical_formula_structural   MgTeO3
_chemical_formula_sum   'Mg4 Te4 O12'
_cell_volume   252.40052953
_cell_formula_units_Z   4
loop_
 _symmetry_equiv_pos_site_id
 _symmetry_equiv_pos_as_xyz
  1  'x, y, z'
loop_
 _atom_site_type_symbol
 _atom_site_label
 _atom_site_symmetry_multiplicity
 _atom_site_fract_x
 _atom_site_fract_y
 _atom_site_fract_z
 _atom_site_occupancy
  Mg  Mg0  1  0.00000000  0.00000000  0.00000000  1
  Mg  Mg1  1  0.00000000  0.50000000  0.00000000  1
  Mg  Mg2  1  0.50000000  0.00000000  0.50000000  1
  Mg  Mg3  1  0.50000000  0.50000000  0.50000000  1
  O  O4  1  0.92989472  0.25000000  0.82503350  1
  O  O5  1  0.81822766  0.42353545  0.35723693  1
  O  O6  1  0.81822766  0.07646455  0.35723693  1
  O  O7  1  0.68177234  0.92353545  0.85723693  1
  O  O8  1  0.68177234  0.57646455  0.85723693  1
  O  O9  1  0.57010528  0.75000000  0.32503350  1
  O  O10  1  0.42989472  0.25000000  0.67496650  1
  O  O11  1  0.31822766  0.42353545  0.14276307  1
  O  O12  1  0.31822766  0.07646455  0.14276307  1
  O  O13  1  0.18177234  0.92353545  0.64276307  1
  O  O14  1  0.18177234  0.57646455  0.64276307  1
  O  O15  1  0.07010528  0.75000000  0.17496650  1
  Te  Te16  1  0.98442200  0.25000000  0.48271701  1
  Te  Te17  1  0.51557800  0.75000000  0.98271701  1
  Te  Te18  1  0.48442200  0.25000000  0.01728299  1
  Te  Te19  1  0.01557800  0.75000000  0.51728299  1
