# generated using pymatgen
data_SrThO3
_symmetry_space_group_name_H-M   'P 1'
_cell_length_a   6.14504204
_cell_length_b   6.33072236
_cell_length_c   8.83119492
_cell_angle_alpha   90.00000000
_cell_angle_beta   90.00000000
_cell_angle_gamma   90.00000000
_symmetry_Int_Tables_number   1
_chemical_formula_structural   SrThO3
_chemical_formula_sum   'Sr4 Th4 O12'
_cell_volume   343.55604599
_cell_formula_units_Z   4
loop_
 _symmetry_equiv_pos_site_id
 _symmetry_equiv_pos_as_xyz
  1  'x, y, z'
loop_
 _atom_site_type_symbol
 _atom_site_label
 _atom_site_symmetry_multiplicity
 _atom_site_fract_x
 _atom_site_fract_y
 _atom_site_fract_z
 _atom_site_occupancy
  O  O0  1  0.69001318  0.30708186  0.06493912  1
  O  O1  1  0.80998632  0.80708167  0.06493912  1
  O  O2  1  0.12195197  0.44016778  0.24999901  1
  O  O3  1  0.37804786  0.94016917  0.24999901  1
  O  O4  1  0.69001318  0.30708186  0.43506117  1
  O  O5  1  0.80998632  0.80708167  0.43506117  1
  O  O6  1  0.19001172  0.19291795  0.56493940  1
  O  O7  1  0.30998649  0.69291777  0.56493940  1
  O  O8  1  0.62195343  0.05983203  0.74999930  1
  O  O9  1  0.87804607  0.55983185  0.74999930  1
  O  O10  1  0.19001172  0.19291795  0.93506146  1
  O  O11  1  0.30998649  0.69291777  0.93506146  1
  Sr  Sr12  1  0.98936345  0.04573886  0.24999901  1
  Sr  Sr13  1  0.51063605  0.54573867  0.24999901  1
  Sr  Sr14  1  0.48936199  0.45426096  0.74999930  1
  Sr  Sr15  1  0.01063622  0.95426077  0.74999930  1
  Th  Th16  1  0.49999983  0.00000000  0.00000000  1
  Th  Th17  1  0.00000000  0.49999981  0.00000000  1
  Th  Th18  1  0.49999983  0.00000000  0.50000029  1
  Th  Th19  1  0.00000000  0.49999981  0.50000029  1
