# generated using pymatgen
data_CeIrO3
_symmetry_space_group_name_H-M   'P 1'
_cell_length_a   5.44315024
_cell_length_b   5.93828662
_cell_length_c   7.90602747
_cell_angle_alpha   90.00000000
_cell_angle_beta   90.00000000
_cell_angle_gamma   90.00000000
_symmetry_Int_Tables_number   1
_chemical_formula_structural   CeIrO3
_chemical_formula_sum   'Ce4 Ir4 O12'
_cell_volume   255.54641687
_cell_formula_units_Z   4
loop_
 _symmetry_equiv_pos_site_id
 _symmetry_equiv_pos_as_xyz
  1  'x, y, z'
loop_
 _atom_site_type_symbol
 _atom_site_label
 _atom_site_symmetry_multiplicity
 _atom_site_fract_x
 _atom_site_fract_y
 _atom_site_fract_z
 _atom_site_occupancy
  Ce  Ce0  1  0.97311663  0.07730513  0.25000040  1
  Ce  Ce1  1  0.52688239  0.57730457  0.25000040  1
  Ce  Ce2  1  0.47311757  0.42269432  0.74999992  1
  Ce  Ce3  1  0.02688333  0.92269544  0.74999992  1
  Ir  Ir4  1  0.50000090  0.00000000  0.00000000  1
  Ir  Ir5  1  0.00000000  0.49999944  0.00000000  1
  Ir  Ir6  1  0.50000090  0.00000000  0.49999953  1
  Ir  Ir7  1  0.00000000  0.49999944  0.49999953  1
  O  O8  1  0.68236588  0.30406919  0.05120397  1
  O  O9  1  0.81763497  0.80406863  0.05120397  1
  O  O10  1  0.11187455  0.46696129  0.25000040  1
  O  O11  1  0.38812634  0.96696074  0.25000040  1
  O  O12  1  0.68236588  0.30406919  0.44879682  1
  O  O13  1  0.81763497  0.80406863  0.44879682  1
  O  O14  1  0.18236498  0.19593194  0.55120350  1
  O  O15  1  0.31763408  0.69593138  0.55120350  1
  O  O16  1  0.61187361  0.03303815  0.74999992  1
  O  O17  1  0.88812540  0.53303928  0.74999992  1
  O  O18  1  0.18236498  0.19593194  0.94879635  1
  O  O19  1  0.31763408  0.69593138  0.94879635  1
