# generated using pymatgen
data_TbTlO3
_symmetry_space_group_name_H-M   'P 1'
_cell_length_a   5.58431122
_cell_length_b   5.94871368
_cell_length_c   8.52199797
_cell_angle_alpha   90.00000000
_cell_angle_beta   90.00000000
_cell_angle_gamma   90.00000000
_symmetry_Int_Tables_number   1
_chemical_formula_structural   TbTlO3
_chemical_formula_sum   'Tb4 Tl4 O12'
_cell_volume   283.09624379
_cell_formula_units_Z   4
loop_
 _symmetry_equiv_pos_site_id
 _symmetry_equiv_pos_as_xyz
  1  'x, y, z'
loop_
 _atom_site_type_symbol
 _atom_site_label
 _atom_site_symmetry_multiplicity
 _atom_site_fract_x
 _atom_site_fract_y
 _atom_site_fract_z
 _atom_site_occupancy
  O  O0  1  0.68805800  0.31228936  0.08527226  1
  O  O1  1  0.81194257  0.81228989  0.08527226  1
  O  O2  1  0.16346689  0.41400547  0.25000006  1
  O  O3  1  0.33653210  0.91400600  0.25000006  1
  O  O4  1  0.68805800  0.31228936  0.41472786  1
  O  O5  1  0.81194257  0.81228989  0.41472786  1
  O  O6  1  0.18805900  0.18771117  0.58527238  1
  O  O7  1  0.31194178  0.68771002  0.58527238  1
  O  O8  1  0.66346947  0.08599506  0.75000018  1
  O  O9  1  0.83653110  0.58599559  0.75000018  1
  O  O10  1  0.18805900  0.18771117  0.91472798  1
  O  O11  1  0.31194178  0.68771002  0.91472798  1
  Tb  Tb12  1  0.97303495  0.06851397  0.25000006  1
  Tb  Tb13  1  0.52696562  0.56851450  0.25000006  1
  Tb  Tb14  1  0.47303417  0.43148488  0.75000018  1
  Tb  Tb15  1  0.02696483  0.93148541  0.75000018  1
  Tl  Tl16  1  0.49999900  0.00000000  0.00000000  1
  Tl  Tl17  1  0.00000000  0.50000053  0.00000000  1
  Tl  Tl18  1  0.49999900  0.00000000  0.50000012  1
  Tl  Tl19  1  0.00000000  0.50000053  0.50000012  1
