# generated using pymatgen
data_TbTlO3
_symmetry_space_group_name_H-M   'P 1'
_cell_length_a   5.80145563
_cell_length_b   5.88282206
_cell_length_c   8.48372800
_cell_angle_alpha   90.00000000
_cell_angle_beta   90.00000000
_cell_angle_gamma   90.00000000
_symmetry_Int_Tables_number   1
_chemical_formula_structural   TbTlO3
_chemical_formula_sum   'Tb4 Tl4 O12'
_cell_volume   289.54056868
_cell_formula_units_Z   4
loop_
 _symmetry_equiv_pos_site_id
 _symmetry_equiv_pos_as_xyz
  1  'x, y, z'
loop_
 _atom_site_type_symbol
 _atom_site_label
 _atom_site_symmetry_multiplicity
 _atom_site_fract_x
 _atom_site_fract_y
 _atom_site_fract_z
 _atom_site_occupancy
  O  O0  1  0.66755315  0.32844951  0.07301979  1
  O  O1  1  0.83244453  0.82844933  0.07301979  1
  O  O2  1  0.13038452  0.39646618  0.24999976  1
  O  O3  1  0.36961413  0.89646601  0.24999976  1
  O  O4  1  0.66755315  0.32844951  0.42698092  1
  O  O5  1  0.83244453  0.82844933  0.42698092  1
  O  O6  1  0.16755450  0.17155032  0.57301931  1
  O  O7  1  0.33244588  0.67155184  0.57301931  1
  O  O8  1  0.63038662  0.10353364  0.74999929  1
  O  O9  1  0.86961451  0.60353347  0.74999929  1
  O  O10  1  0.16755450  0.17155032  0.92698045  1
  O  O11  1  0.33244588  0.67155184  0.92698045  1
  Tb  Tb12  1  0.49999865  0.00000000  0.00000000  1
  Tb  Tb13  1  0.00000000  0.49999983  0.00000000  1
  Tb  Tb14  1  0.49999865  0.00000000  0.49999953  1
  Tb  Tb15  1  0.00000000  0.49999983  0.49999953  1
  Tl  Tl16  1  0.99256641  0.04376981  0.24999976  1
  Tl  Tl17  1  0.50743472  0.54377133  0.24999976  1
  Tl  Tl18  1  0.49256604  0.45623002  0.74999929  1
  Tl  Tl19  1  0.00743434  0.95622984  0.74999929  1
