# generated using pymatgen
data_HoPbO3
_symmetry_space_group_name_H-M   'P 1'
_cell_length_a   5.78200403
_cell_length_b   6.04073006
_cell_length_c   8.42301435
_cell_angle_alpha   90.00000000
_cell_angle_beta   90.00000000
_cell_angle_gamma   90.00000000
_symmetry_Int_Tables_number   1
_chemical_formula_structural   HoPbO3
_chemical_formula_sum   'Ho4 Pb4 O12'
_cell_volume   294.19504863
_cell_formula_units_Z   4
loop_
 _symmetry_equiv_pos_site_id
 _symmetry_equiv_pos_as_xyz
  1  'x, y, z'
loop_
 _atom_site_type_symbol
 _atom_site_label
 _atom_site_symmetry_multiplicity
 _atom_site_fract_x
 _atom_site_fract_y
 _atom_site_fract_z
 _atom_site_occupancy
  Ho  Ho0  1  0.49999965  0.00000000  0.00000000  1
  Ho  Ho1  1  0.00000000  0.50000082  0.00000000  1
  Ho  Ho2  1  0.49999965  0.00000000  0.50000034  1
  Ho  Ho3  1  0.00000000  0.50000082  0.50000034  1
  O  O4  1  0.67588850  0.31764041  0.07015897  1
  O  O5  1  0.82411219  0.81764124  0.07015897  1
  O  O6  1  0.14321851  0.42502975  0.24999957  1
  O  O7  1  0.35678287  0.92503058  0.24999957  1
  O  O8  1  0.67588850  0.31764041  0.42984018  1
  O  O9  1  0.82411219  0.81764124  0.42984018  1
  O  O10  1  0.17588884  0.18235875  0.57015930  1
  O  O11  1  0.32411081  0.68235958  0.57015930  1
  O  O12  1  0.64321816  0.07496942  0.74999991  1
  O  O13  1  0.85678252  0.57497024  0.74999991  1
  O  O14  1  0.17588884  0.18235875  0.92984051  1
  O  O15  1  0.32411081  0.68235958  0.92984051  1
  Pb  Pb16  1  0.98763854  0.04531571  0.24999957  1
  Pb  Pb17  1  0.51236215  0.54531488  0.24999957  1
  Pb  Pb18  1  0.48763889  0.45468511  0.74999991  1
  Pb  Pb19  1  0.01236250  0.95468428  0.74999991  1
