# generated using pymatgen
data_LiCoO3
_symmetry_space_group_name_H-M   'P 1'
_cell_length_a   4.78254024
_cell_length_b   4.96523692
_cell_length_c   6.88947728
_cell_angle_alpha   90.00000000
_cell_angle_beta   90.00000000
_cell_angle_gamma   90.00000000
_symmetry_Int_Tables_number   1
_chemical_formula_structural   LiCoO3
_chemical_formula_sum   'Li4 Co4 O12'
_cell_volume   163.60059594
_cell_formula_units_Z   4
loop_
 _symmetry_equiv_pos_site_id
 _symmetry_equiv_pos_as_xyz
  1  'x, y, z'
loop_
 _atom_site_type_symbol
 _atom_site_label
 _atom_site_symmetry_multiplicity
 _atom_site_fract_x
 _atom_site_fract_y
 _atom_site_fract_z
 _atom_site_occupancy
  Co  Co0  1  0.49999998  0.00000000  0.00000000  1
  Co  Co1  1  0.00000000  0.50000031  0.00000000  1
  Co  Co2  1  0.49999998  0.00000000  0.50000020  1
  Co  Co3  1  0.00000000  0.50000031  0.50000020  1
  Li  Li4  1  0.98512710  0.07128361  0.25000010  1
  Li  Li5  1  0.51487282  0.57128190  0.25000010  1
  Li  Li6  1  0.48512713  0.42871670  0.75000030  1
  Li  Li7  1  0.01487285  0.92871701  0.75000030  1
  O  O8  1  0.67412919  0.31923955  0.06630692  1
  O  O9  1  0.82587073  0.81923986  0.06630692  1
  O  O10  1  0.13232926  0.45596817  0.25000010  1
  O  O11  1  0.36767072  0.95596848  0.25000010  1
  O  O12  1  0.67412919  0.31923955  0.43369328  1
  O  O13  1  0.82587073  0.81923986  0.43369328  1
  O  O14  1  0.17412922  0.18076076  0.56630711  1
  O  O15  1  0.32587076  0.68076107  0.56630711  1
  O  O16  1  0.63232923  0.04403214  0.75000030  1
  O  O17  1  0.86767069  0.54403245  0.75000030  1
  O  O18  1  0.17412922  0.18076076  0.93369348  1
  O  O19  1  0.32587076  0.68076107  0.93369348  1
