# generated using pymatgen
data_HgPbO3
_symmetry_space_group_name_H-M   'P 1'
_cell_length_a   5.77442541
_cell_length_b   5.81574048
_cell_length_c   8.35112930
_cell_angle_alpha   90.00000000
_cell_angle_beta   90.00000000
_cell_angle_gamma   90.00000000
_symmetry_Int_Tables_number   1
_chemical_formula_structural   HgPbO3
_chemical_formula_sum   'Hg4 Pb4 O12'
_cell_volume   280.45229742
_cell_formula_units_Z   4
loop_
 _symmetry_equiv_pos_site_id
 _symmetry_equiv_pos_as_xyz
  1  'x, y, z'
loop_
 _atom_site_type_symbol
 _atom_site_label
 _atom_site_symmetry_multiplicity
 _atom_site_fract_x
 _atom_site_fract_y
 _atom_site_fract_z
 _atom_site_occupancy
  Hg  Hg0  1  0.99000326  0.04480943  0.24999972  1
  Hg  Hg1  1  0.50999879  0.54480767  0.24999972  1
  Hg  Hg2  1  0.49000200  0.45519225  0.75000036  1
  Hg  Hg3  1  0.00999926  0.95519393  0.75000036  1
  O  O4  1  0.68838884  0.30727300  0.06829855  1
  O  O5  1  0.81160802  0.80727467  0.06829855  1
  O  O6  1  0.12106832  0.42622260  0.24999972  1
  O  O7  1  0.37893121  0.92622084  0.24999972  1
  O  O8  1  0.68838884  0.30727300  0.43170090  1
  O  O9  1  0.81160802  0.80727467  0.43170090  1
  O  O10  1  0.18838931  0.19272524  0.56829679  1
  O  O11  1  0.31161022  0.69272520  0.56829679  1
  O  O12  1  0.62106785  0.07378080  0.75000036  1
  O  O13  1  0.87893247  0.57377904  0.75000036  1
  O  O14  1  0.18838931  0.19272524  0.93170154  1
  O  O15  1  0.31161022  0.69272520  0.93170154  1
  Pb  Pb16  1  0.49999953  0.00000000  0.00000000  1
  Pb  Pb17  1  0.00000000  0.50000168  0.00000000  1
  Pb  Pb18  1  0.49999953  0.00000000  0.49999944  1
  Pb  Pb19  1  0.00000000  0.50000168  0.49999944  1
