# generated using pymatgen
data_CoSeO3
_symmetry_space_group_name_H-M   'P 1'
_cell_length_a   5.09180900
_cell_length_b   6.01505800
_cell_length_c   7.66077200
_cell_angle_alpha   90.00000000
_cell_angle_beta   90.00000000
_cell_angle_gamma   90.00000000
_symmetry_Int_Tables_number   1
_chemical_formula_structural   CoSeO3
_chemical_formula_sum   'Co4 Se4 O12'
_cell_volume   234.63049713
_cell_formula_units_Z   4
loop_
 _symmetry_equiv_pos_site_id
 _symmetry_equiv_pos_as_xyz
  1  'x, y, z'
loop_
 _atom_site_type_symbol
 _atom_site_label
 _atom_site_symmetry_multiplicity
 _atom_site_fract_x
 _atom_site_fract_y
 _atom_site_fract_z
 _atom_site_occupancy
  Co  Co0  1  0.50000000  0.00000000  0.50000000  1
  Co  Co1  1  0.50000000  0.00000000  0.00000000  1
  Co  Co2  1  0.00000000  0.50000000  0.00000000  1
  Co  Co3  1  0.00000000  0.50000000  0.50000000  1
  Se  Se4  1  0.01725800  0.97752300  0.75000000  1
  Se  Se5  1  0.48274200  0.47752300  0.75000000  1
  Se  Se6  1  0.51725800  0.52247700  0.25000000  1
  Se  Se7  1  0.98274200  0.02247700  0.25000000  1
  O  O8  1  0.13577200  0.81472200  0.57593100  1
  O  O9  1  0.63577200  0.68527800  0.07593100  1
  O  O10  1  0.86422800  0.18527800  0.07593100  1
  O  O11  1  0.82345100  0.43085800  0.75000000  1
  O  O12  1  0.13577200  0.81472200  0.92406900  1
  O  O13  1  0.67654900  0.93085800  0.75000000  1
  O  O14  1  0.86422800  0.18527800  0.42406900  1
  O  O15  1  0.36422800  0.31472200  0.57593100  1
  O  O16  1  0.36422800  0.31472200  0.92406900  1
  O  O17  1  0.17654900  0.56914200  0.25000000  1
  O  O18  1  0.63577200  0.68527800  0.42406900  1
  O  O19  1  0.32345100  0.06914200  0.25000000  1
