# generated using pymatgen
data_UGaO3
_symmetry_space_group_name_H-M   'P 1'
_cell_length_a   5.47500723
_cell_length_b   5.50233518
_cell_length_c   7.86214566
_cell_angle_alpha   90.00000000
_cell_angle_beta   90.00000000
_cell_angle_gamma   90.00000000
_symmetry_Int_Tables_number   1
_chemical_formula_structural   UGaO3
_chemical_formula_sum   'U4 Ga4 O12'
_cell_volume   236.84969226
_cell_formula_units_Z   4
loop_
 _symmetry_equiv_pos_site_id
 _symmetry_equiv_pos_as_xyz
  1  'x, y, z'
loop_
 _atom_site_type_symbol
 _atom_site_label
 _atom_site_symmetry_multiplicity
 _atom_site_fract_x
 _atom_site_fract_y
 _atom_site_fract_z
 _atom_site_occupancy
  Ga  Ga0  1  0.50000117  0.00000000  0.00000000  1
  Ga  Ga1  1  0.00000000  0.50000044  0.00000000  1
  Ga  Ga2  1  0.50000117  0.00000000  0.49999964  1
  Ga  Ga3  1  0.00000000  0.50000044  0.49999964  1
  O  O4  1  0.71186390  0.28940258  0.03200017  1
  O  O5  1  0.78813595  0.78940302  0.03200017  1
  O  O6  1  0.06173873  0.49162763  0.25000046  1
  O  O7  1  0.43826061  0.99162807  0.25000046  1
  O  O8  1  0.71186390  0.28940258  0.46799820  1
  O  O9  1  0.78813595  0.78940302  0.46799820  1
  O  O10  1  0.21186456  0.21059786  0.53200108  1
  O  O11  1  0.28813661  0.71059830  0.53200108  1
  O  O12  1  0.56173807  0.00837281  0.75000010  1
  O  O13  1  0.93825995  0.50837325  0.75000010  1
  O  O14  1  0.21186456  0.21059786  0.96799784  1
  O  O15  1  0.28813661  0.71059830  0.96799784  1
  U  U16  1  0.99473841  0.02991275  0.25000046  1
  U  U17  1  0.50526143  0.52991319  0.25000046  1
  U  U18  1  0.49473907  0.47008768  0.75000010  1
  U  U19  1  0.00526209  0.97008630  0.75000010  1
