# generated using pymatgen
data_UGaO3
_symmetry_space_group_name_H-M   'P 1'
_cell_length_a   5.89479543
_cell_length_b   6.08051040
_cell_length_c   8.61126309
_cell_angle_alpha   90.00000000
_cell_angle_beta   90.00000000
_cell_angle_gamma   90.00000000
_symmetry_Int_Tables_number   1
_chemical_formula_structural   UGaO3
_chemical_formula_sum   'U4 Ga4 O12'
_cell_volume   308.65664529
_cell_formula_units_Z   4
loop_
 _symmetry_equiv_pos_site_id
 _symmetry_equiv_pos_as_xyz
  1  'x, y, z'
loop_
 _atom_site_type_symbol
 _atom_site_label
 _atom_site_symmetry_multiplicity
 _atom_site_fract_x
 _atom_site_fract_y
 _atom_site_fract_z
 _atom_site_occupancy
  Ga  Ga0  1  0.01729152  0.02843840  0.25000049  1
  Ga  Ga1  1  0.48270886  0.52843755  0.25000049  1
  Ga  Ga2  1  0.51729022  0.47156239  0.75000031  1
  Ga  Ga3  1  0.98270925  0.97155989  0.75000031  1
  O  O4  1  0.70053661  0.29814273  0.02570935  1
  O  O5  1  0.79946455  0.79814517  0.02570935  1
  O  O6  1  0.07320865  0.49374802  0.25000049  1
  O  O7  1  0.42679174  0.99374717  0.25000049  1
  O  O8  1  0.70053661  0.29814273  0.47429279  1
  O  O9  1  0.79946455  0.79814517  0.47429279  1
  O  O10  1  0.20053622  0.20185477  0.52570801  1
  O  O11  1  0.29946417  0.70185720  0.52570801  1
  O  O12  1  0.57320903  0.00625276  0.75000031  1
  O  O13  1  0.92679213  0.50625355  0.75000031  1
  O  O14  1  0.20053622  0.20185477  0.97429261  1
  O  O15  1  0.29946417  0.70185720  0.97429261  1
  U  U16  1  0.50000039  0.00000000  0.00000000  1
  U  U17  1  0.00000000  0.49999914  0.00000000  1
  U  U18  1  0.50000039  0.00000000  0.49999982  1
  U  U19  1  0.00000000  0.49999914  0.49999982  1
