# generated using pymatgen
data_CrBiO3
_symmetry_space_group_name_H-M   'P 1'
_cell_length_a   5.46763900
_cell_length_b   5.67657300
_cell_length_c   7.84075600
_cell_angle_alpha   89.99995058
_cell_angle_beta   90.00093606
_cell_angle_gamma   90.00017467
_symmetry_Int_Tables_number   1
_chemical_formula_structural   CrBiO3
_chemical_formula_sum   'Cr4 Bi4 O12'
_cell_volume   243.35708736
_cell_formula_units_Z   4
loop_
 _symmetry_equiv_pos_site_id
 _symmetry_equiv_pos_as_xyz
  1  'x, y, z'
loop_
 _atom_site_type_symbol
 _atom_site_label
 _atom_site_symmetry_multiplicity
 _atom_site_fract_x
 _atom_site_fract_y
 _atom_site_fract_z
 _atom_site_occupancy
  Cr  Cr0  1  0.00000100  0.50000300  0.00000100  1
  Cr  Cr1  1  0.50000100  0.99999900  0.50000100  1
  Cr  Cr2  1  0.00000200  0.49999400  0.50000000  1
  Cr  Cr3  1  0.49999700  0.99999800  0.00000200  1
  Bi  Bi4  1  0.00934900  0.94763300  0.74999500  1
  Bi  Bi5  1  0.99065700  0.05236700  0.25000500  1
  Bi  Bi6  1  0.50934200  0.55236700  0.24999600  1
  Bi  Bi7  1  0.49065200  0.44763700  0.75000400  1
  O  O8  1  0.90702700  0.52747300  0.75006000  1
  O  O9  1  0.40703400  0.97252700  0.25006600  1
  O  O10  1  0.09297100  0.47252800  0.24993900  1
  O  O11  1  0.59296700  0.02747100  0.74993400  1
  O  O12  1  0.80246900  0.79895800  0.45467700  1
  O  O13  1  0.69752300  0.29895100  0.04532600  1
  O  O14  1  0.69741400  0.29883700  0.45466200  1
  O  O15  1  0.30258800  0.70116700  0.54533800  1
  O  O16  1  0.80258000  0.79884400  0.04533700  1
  O  O17  1  0.19753300  0.20104300  0.54532300  1
  O  O18  1  0.19741800  0.20115700  0.95466100  1
  O  O19  1  0.30247600  0.70104700  0.95467400  1
