# generated using pymatgen
data_NbCrO3
_symmetry_space_group_name_H-M   'P 1'
_cell_length_a   5.23075630
_cell_length_b   5.56587866
_cell_length_c   7.71476773
_cell_angle_alpha   90.00000000
_cell_angle_beta   90.00000000
_cell_angle_gamma   90.00000000
_symmetry_Int_Tables_number   1
_chemical_formula_structural   NbCrO3
_chemical_formula_sum   'Nb4 Cr4 O12'
_cell_volume   224.60585635
_cell_formula_units_Z   4
loop_
 _symmetry_equiv_pos_site_id
 _symmetry_equiv_pos_as_xyz
  1  'x, y, z'
loop_
 _atom_site_type_symbol
 _atom_site_label
 _atom_site_symmetry_multiplicity
 _atom_site_fract_x
 _atom_site_fract_y
 _atom_site_fract_z
 _atom_site_occupancy
  Cr  Cr0  1  0.98908642  0.07806315  0.24999975  1
  Cr  Cr1  1  0.51091273  0.57806506  0.24999975  1
  Cr  Cr2  1  0.48908797  0.42193697  0.74999925  1
  Cr  Cr3  1  0.01091047  0.92193530  0.74999925  1
  Nb  Nb4  1  0.49999844  0.00000000  0.00000000  1
  Nb  Nb5  1  0.00000000  0.50000012  0.00000000  1
  Nb  Nb6  1  0.49999844  0.00000000  0.49999950  1
  Nb  Nb7  1  0.00000000  0.50000012  0.49999950  1
  O  O8  1  0.68989259  0.29777688  0.07533474  1
  O  O9  1  0.81010847  0.79777700  0.07533474  1
  O  O10  1  0.15116934  0.43108917  0.24999975  1
  O  O11  1  0.34883101  0.93108929  0.24999975  1
  O  O12  1  0.68989259  0.29777688  0.42466476  1
  O  O13  1  0.81010847  0.79777700  0.42466476  1
  O  O14  1  0.18989223  0.20222503  0.57533424  1
  O  O15  1  0.31010812  0.70222336  0.57533424  1
  O  O16  1  0.65116970  0.06891095  0.74999925  1
  O  O17  1  0.84883136  0.56891107  0.74999925  1
  O  O18  1  0.18989223  0.20222503  0.92466556  1
  O  O19  1  0.31010812  0.70222336  0.92466556  1
