# generated using pymatgen
data_NbCrO3
_symmetry_space_group_name_H-M   'P 1'
_cell_length_a   5.34834957
_cell_length_b   5.68696942
_cell_length_c   7.17431499
_cell_angle_alpha   90.00000000
_cell_angle_beta   90.00000000
_cell_angle_gamma   90.00000000
_symmetry_Int_Tables_number   1
_chemical_formula_structural   NbCrO3
_chemical_formula_sum   'Nb4 Cr4 O12'
_cell_volume   218.21325052
_cell_formula_units_Z   4
loop_
 _symmetry_equiv_pos_site_id
 _symmetry_equiv_pos_as_xyz
  1  'x, y, z'
loop_
 _atom_site_type_symbol
 _atom_site_label
 _atom_site_symmetry_multiplicity
 _atom_site_fract_x
 _atom_site_fract_y
 _atom_site_fract_z
 _atom_site_occupancy
  Cr  Cr0  1  0.50000097  0.00000000  0.00000000  1
  Cr  Cr1  1  0.00000000  0.50000093  0.00000000  1
  Cr  Cr2  1  0.50000097  0.00000000  0.50000035  1
  Cr  Cr3  1  0.00000000  0.50000093  0.50000035  1
  Nb  Nb4  1  0.00791459  0.05683871  0.25000017  1
  Nb  Nb5  1  0.49208451  0.55683964  0.25000017  1
  Nb  Nb6  1  0.50791557  0.44316222  0.75000052  1
  Nb  Nb7  1  0.99208541  0.94316139  0.75000052  1
  O  O8  1  0.66182847  0.34734493  0.06196968  1
  O  O9  1  0.83817259  0.84734234  0.06196968  1
  O  O10  1  0.14615350  0.40570642  0.25000017  1
  O  O11  1  0.35384561  0.90570559  0.25000017  1
  O  O12  1  0.66182847  0.34734493  0.43803067  1
  O  O13  1  0.83817259  0.84734234  0.43803067  1
  O  O14  1  0.16182749  0.15265600  0.56197003  1
  O  O15  1  0.33817161  0.65265693  0.56197003  1
  O  O16  1  0.64615447  0.09429451  0.75000052  1
  O  O17  1  0.85384658  0.59429544  0.75000052  1
  O  O18  1  0.16182749  0.15265600  0.93803102  1
  O  O19  1  0.33817161  0.65265693  0.93803102  1
