# generated using pymatgen
data_BiPbO3
_symmetry_space_group_name_H-M   'P 1'
_cell_length_a   5.80883374
_cell_length_b   6.23539816
_cell_length_c   8.32086669
_cell_angle_alpha   90.00000000
_cell_angle_beta   90.00000000
_cell_angle_gamma   90.00000000
_symmetry_Int_Tables_number   1
_chemical_formula_structural   BiPbO3
_chemical_formula_sum   'Bi4 Pb4 O12'
_cell_volume   301.38504657
_cell_formula_units_Z   4
loop_
 _symmetry_equiv_pos_site_id
 _symmetry_equiv_pos_as_xyz
  1  'x, y, z'
loop_
 _atom_site_type_symbol
 _atom_site_label
 _atom_site_symmetry_multiplicity
 _atom_site_fract_x
 _atom_site_fract_y
 _atom_site_fract_z
 _atom_site_occupancy
  Bi  Bi0  1  0.98754591  0.04587678  0.25000040  1
  Bi  Bi1  1  0.51245743  0.54587533  0.25000040  1
  Bi  Bi2  1  0.48754365  0.45412497  0.75000000  1
  Bi  Bi3  1  0.01245689  0.95412512  0.75000000  1
  O  O4  1  0.66622323  0.31972617  0.06049370  1
  O  O5  1  0.83377666  0.81972312  0.06049370  1
  O  O6  1  0.14633919  0.43751176  0.25000040  1
  O  O7  1  0.35365963  0.93751351  0.25000040  1
  O  O8  1  0.66622323  0.31972617  0.43950710  1
  O  O9  1  0.83377666  0.81972312  0.43950710  1
  O  O10  1  0.16622270  0.18027397  0.56049330  1
  O  O11  1  0.33377612  0.68027572  0.56049330  1
  O  O12  1  0.64633972  0.06248839  0.75000000  1
  O  O13  1  0.85365845  0.56248854  0.75000000  1
  O  O14  1  0.16622270  0.18027397  0.93950550  1
  O  O15  1  0.33377612  0.68027572  0.93950550  1
  Pb  Pb16  1  0.50000054  0.00000000  0.00000000  1
  Pb  Pb17  1  0.00000000  0.50000175  0.00000000  1
  Pb  Pb18  1  0.50000054  0.00000000  0.49999960  1
  Pb  Pb19  1  0.00000000  0.50000175  0.49999960  1
