# generated using pymatgen
data_NpGaO3
_symmetry_space_group_name_H-M   'P 1'
_cell_length_a   5.70539037
_cell_length_b   5.94065550
_cell_length_c   8.25679762
_cell_angle_alpha   90.00000000
_cell_angle_beta   90.00000000
_cell_angle_gamma   90.00000000
_symmetry_Int_Tables_number   1
_chemical_formula_structural   NpGaO3
_chemical_formula_sum   'Np4 Ga4 O12'
_cell_volume   279.85390623
_cell_formula_units_Z   4
loop_
 _symmetry_equiv_pos_site_id
 _symmetry_equiv_pos_as_xyz
  1  'x, y, z'
loop_
 _atom_site_type_symbol
 _atom_site_label
 _atom_site_symmetry_multiplicity
 _atom_site_fract_x
 _atom_site_fract_y
 _atom_site_fract_z
 _atom_site_occupancy
  Ga  Ga0  1  0.99190233  0.01686346  0.25000007  1
  Ga  Ga1  1  0.50810020  0.51686215  0.25000007  1
  Ga  Ga2  1  0.49189973  0.48313860  0.75000022  1
  Ga  Ga3  1  0.00809936  0.98313561  0.75000022  1
  Np  Np4  1  0.50000084  0.00000000  0.00000000  1
  Np  Np5  1  0.00000000  0.49999870  0.00000000  1
  Np  Np6  1  0.50000084  0.00000000  0.50000136  1
  Np  Np7  1  0.00000000  0.49999870  0.50000136  1
  O  O8  1  0.65268277  0.33549160  0.07725150  1
  O  O9  1  0.84731801  0.83549029  0.07725150  1
  O  O10  1  0.17873624  0.45227332  0.25000007  1
  O  O11  1  0.32126461  0.95227202  0.25000007  1
  O  O12  1  0.65268277  0.33549160  0.42274743  1
  O  O13  1  0.84731801  0.83549029  0.42274743  1
  O  O14  1  0.15268193  0.16450710  0.57725286  1
  O  O15  1  0.34731716  0.66451084  0.57725286  1
  O  O16  1  0.67873357  0.04772706  0.75000022  1
  O  O17  1  0.82126545  0.54772743  0.75000022  1
  O  O18  1  0.15268193  0.16450710  0.92274879  1
  O  O19  1  0.34731716  0.66451084  0.92274879  1
