# generated using pymatgen
data_NaCuO3
_symmetry_space_group_name_H-M   'P 1'
_cell_length_a   5.28563863
_cell_length_b   5.15395050
_cell_length_c   7.35467496
_cell_angle_alpha   90.00000000
_cell_angle_beta   90.00000000
_cell_angle_gamma   90.00000000
_symmetry_Int_Tables_number   1
_chemical_formula_structural   NaCuO3
_chemical_formula_sum   'Na4 Cu4 O12'
_cell_volume   200.35546585
_cell_formula_units_Z   4
loop_
 _symmetry_equiv_pos_site_id
 _symmetry_equiv_pos_as_xyz
  1  'x, y, z'
loop_
 _atom_site_type_symbol
 _atom_site_label
 _atom_site_symmetry_multiplicity
 _atom_site_fract_x
 _atom_site_fract_y
 _atom_site_fract_z
 _atom_site_occupancy
  Cu  Cu0  1  0.50000013  0.00000000  0.00000000  1
  Cu  Cu1  1  0.00000000  0.50000092  0.00000000  1
  Cu  Cu2  1  0.50000013  0.00000000  0.49999898  1
  Cu  Cu3  1  0.00000000  0.50000092  0.49999898  1
  Na  Na4  1  0.99433207  0.04163796  0.25000017  1
  Na  Na5  1  0.50566832  0.54163694  0.25000017  1
  Na  Na6  1  0.49433005  0.45836296  0.74999915  1
  Na  Na7  1  0.00566819  0.95836194  0.74999915  1
  O  O8  1  0.70721445  0.29635519  0.03780996  1
  O  O9  1  0.79278594  0.79635612  0.03780996  1
  O  O10  1  0.42037683  0.00824998  0.25000017  1
  O  O11  1  0.07962519  0.50825090  0.25000017  1
  O  O12  1  0.70721445  0.29635519  0.46218902  1
  O  O13  1  0.79278594  0.79635612  0.46218902  1
  O  O14  1  0.20721432  0.20364573  0.53781031  1
  O  O15  1  0.29278770  0.70364277  0.53781031  1
  O  O16  1  0.92037696  0.49174706  0.74999915  1
  O  O17  1  0.57962343  0.99174808  0.74999915  1
  O  O18  1  0.20721432  0.20364573  0.96219072  1
  O  O19  1  0.29278770  0.70364277  0.96219072  1
