# generated using pymatgen
data_LiBiO3
_symmetry_space_group_name_H-M   'P 1'
_cell_length_a   5.41433279
_cell_length_b   5.50071945
_cell_length_c   7.84896099
_cell_angle_alpha   90.00000000
_cell_angle_beta   90.00000000
_cell_angle_gamma   90.00000000
_symmetry_Int_Tables_number   1
_chemical_formula_structural   LiBiO3
_chemical_formula_sum   'Li4 Bi4 O12'
_cell_volume   233.76345198
_cell_formula_units_Z   4
loop_
 _symmetry_equiv_pos_site_id
 _symmetry_equiv_pos_as_xyz
  1  'x, y, z'
loop_
 _atom_site_type_symbol
 _atom_site_label
 _atom_site_symmetry_multiplicity
 _atom_site_fract_x
 _atom_site_fract_y
 _atom_site_fract_z
 _atom_site_occupancy
  Bi  Bi0  1  0.49999882  0.00000000  0.00000000  1
  Bi  Bi1  1  0.00000000  0.50000005  0.00000000  1
  Bi  Bi2  1  0.49999882  0.00000000  0.49999994  1
  Bi  Bi3  1  0.00000000  0.50000005  0.49999994  1
  Li  Li4  1  0.01220095  0.02965794  0.24999997  1
  Li  Li5  1  0.48779972  0.52965799  0.24999997  1
  Li  Li6  1  0.51219977  0.47034211  0.74999991  1
  Li  Li7  1  0.98779854  0.97034216  0.74999991  1
  O  O8  1  0.66357022  0.32955507  0.07270516  1
  O  O9  1  0.83642808  0.82955512  0.07270516  1
  O  O10  1  0.13636214  0.41257694  0.24999997  1
  O  O11  1  0.36363853  0.91257699  0.24999997  1
  O  O12  1  0.66357022  0.32955507  0.42729477  1
  O  O13  1  0.83642808  0.82955512  0.42729477  1
  O  O14  1  0.16357140  0.17044498  0.57270510  1
  O  O15  1  0.33642926  0.67044503  0.57270510  1
  O  O16  1  0.63636096  0.08742311  0.74999991  1
  O  O17  1  0.86363919  0.58742316  0.74999991  1
  O  O18  1  0.16357140  0.17044498  0.92729598  1
  O  O19  1  0.33642926  0.67044503  0.92729598  1
