# generated using pymatgen
data_DyZnO3
_symmetry_space_group_name_H-M   'P 1'
_cell_length_a   5.23693845
_cell_length_b   5.77472049
_cell_length_c   7.45935796
_cell_angle_alpha   90.00000000
_cell_angle_beta   90.00000000
_cell_angle_gamma   90.00000000
_symmetry_Int_Tables_number   1
_chemical_formula_structural   DyZnO3
_chemical_formula_sum   'Dy4 Zn4 O12'
_cell_volume   225.58482776
_cell_formula_units_Z   4
loop_
 _symmetry_equiv_pos_site_id
 _symmetry_equiv_pos_as_xyz
  1  'x, y, z'
loop_
 _atom_site_type_symbol
 _atom_site_label
 _atom_site_symmetry_multiplicity
 _atom_site_fract_x
 _atom_site_fract_y
 _atom_site_fract_z
 _atom_site_occupancy
  Dy  Dy0  1  0.97606265  0.08635916  0.25000007  1
  Dy  Dy1  1  0.52393971  0.58635912  0.25000007  1
  Dy  Dy2  1  0.47606250  0.41364080  0.75000020  1
  Dy  Dy3  1  0.02393956  0.91364076  0.75000020  1
  O  O4  1  0.69237781  0.31740064  0.05547662  1
  O  O5  1  0.80762263  0.81740233  0.05547662  1
  O  O6  1  0.11670559  0.46365188  0.25000007  1
  O  O7  1  0.38329265  0.96365184  0.25000007  1
  O  O8  1  0.69237781  0.31740064  0.44452485  1
  O  O9  1  0.80762263  0.81740233  0.44452485  1
  O  O10  1  0.19237767  0.18259931  0.55547676  1
  O  O11  1  0.30762248  0.68259754  0.55547676  1
  O  O12  1  0.61670574  0.03634808  0.75000020  1
  O  O13  1  0.88329280  0.53634804  0.75000020  1
  O  O14  1  0.19237767  0.18259931  0.94452365  1
  O  O15  1  0.30762248  0.68259754  0.94452365  1
  Zn  Zn16  1  0.50000015  0.00000000  0.00000000  1
  Zn  Zn17  1  0.00000000  0.49999996  0.00000000  1
  Zn  Zn18  1  0.50000015  0.00000000  0.50000014  1
  Zn  Zn19  1  0.00000000  0.49999996  0.50000014  1
