# generated using pymatgen
data_CdPbO3
_symmetry_space_group_name_H-M   'P 1'
_cell_length_a   4.97011900
_cell_length_b   6.90711100
_cell_length_c   4.86512300
_cell_angle_alpha   90.00000000
_cell_angle_beta   90.00000000
_cell_angle_gamma   90.00000000
_symmetry_Int_Tables_number   1
_chemical_formula_structural   CdPbO3
_chemical_formula_sum   'Cd4 Pb4 O12'
_cell_volume   167.01560348
_cell_formula_units_Z   4
loop_
 _symmetry_equiv_pos_site_id
 _symmetry_equiv_pos_as_xyz
  1  'x, y, z'
loop_
 _atom_site_type_symbol
 _atom_site_label
 _atom_site_symmetry_multiplicity
 _atom_site_fract_x
 _atom_site_fract_y
 _atom_site_fract_z
 _atom_site_occupancy
  Cd  Cd0  1  0.54984852  0.75000000  0.01401912  1
  Cd  Cd1  1  0.04984852  0.75000000  0.48598088  1
  Cd  Cd2  1  0.95015148  0.25000000  0.51401912  1
  Cd  Cd3  1  0.45015148  0.25000000  0.98598088  1
  O  O4  1  0.03930576  0.25000000  0.10312148  1
  O  O5  1  0.29515975  0.55465510  0.20133355  1
  O  O6  1  0.29515975  0.94534490  0.20133355  1
  O  O7  1  0.79515975  0.55465510  0.29866645  1
  O  O8  1  0.79515975  0.94534490  0.29866645  1
  O  O9  1  0.53930576  0.25000000  0.39687852  1
  O  O10  1  0.46069424  0.75000000  0.60312148  1
  O  O11  1  0.20484025  0.05465510  0.70133355  1
  O  O12  1  0.20484025  0.44534490  0.70133355  1
  O  O13  1  0.70484025  0.05465510  0.79866645  1
  O  O14  1  0.70484025  0.44534490  0.79866645  1
  O  O15  1  0.96069424  0.75000000  0.89687852  1
  Pb  Pb16  1  0.00000000  0.00000000  0.00000000  1
  Pb  Pb17  1  0.00000000  0.50000000  0.00000000  1
  Pb  Pb18  1  0.50000000  0.00000000  0.50000000  1
  Pb  Pb19  1  0.50000000  0.50000000  0.50000000  1
