# generated using pymatgen
data_KSmO3
_symmetry_space_group_name_H-M   'P 1'
_cell_length_a   6.32356477
_cell_length_b   6.34731477
_cell_length_c   8.91904832
_cell_angle_alpha   90.00000000
_cell_angle_beta   90.00000000
_cell_angle_gamma   90.00000000
_symmetry_Int_Tables_number   1
_chemical_formula_structural   KSmO3
_chemical_formula_sum   'K4 Sm4 O12'
_cell_volume   357.98969370
_cell_formula_units_Z   4
loop_
 _symmetry_equiv_pos_site_id
 _symmetry_equiv_pos_as_xyz
  1  'x, y, z'
loop_
 _atom_site_type_symbol
 _atom_site_label
 _atom_site_symmetry_multiplicity
 _atom_site_fract_x
 _atom_site_fract_y
 _atom_site_fract_z
 _atom_site_occupancy
  K  K0  1  0.99658345  0.01834949  0.24999977  1
  K  K1  1  0.50341700  0.51835148  0.24999977  1
  K  K2  1  0.49658383  0.48164934  0.75000042  1
  K  K3  1  0.00341579  0.98164818  0.75000042  1
  O  O4  1  0.71932686  0.27958279  0.03065462  1
  O  O5  1  0.78067517  0.77958321  0.03065462  1
  O  O6  1  0.05882125  0.47650701  0.24999977  1
  O  O7  1  0.44117679  0.97650743  0.24999977  1
  O  O8  1  0.71932686  0.27958279  0.46934604  1
  O  O9  1  0.78067517  0.77958321  0.46934604  1
  O  O10  1  0.21932566  0.22041762  0.53065415  1
  O  O11  1  0.28067397  0.72041803  0.53065415  1
  O  O12  1  0.55882246  0.02349182  0.75000042  1
  O  O13  1  0.94117799  0.52349224  0.75000042  1
  O  O14  1  0.21932566  0.22041762  0.96934557  1
  O  O15  1  0.28067397  0.72041803  0.96934557  1
  Sm  Sm16  1  0.49999962  0.00000000  0.00000000  1
  Sm  Sm17  1  0.00000000  0.49999884  0.00000000  1
  Sm  Sm18  1  0.49999962  0.00000000  0.50000065  1
  Sm  Sm19  1  0.00000000  0.49999884  0.50000065  1
