# generated using pymatgen
data_MnSnO3
_symmetry_space_group_name_H-M   'P 1'
_cell_length_a   5.36753899
_cell_length_b   5.54404683
_cell_length_c   7.82254227
_cell_angle_alpha   90.00000000
_cell_angle_beta   90.00000000
_cell_angle_gamma   90.00000000
_symmetry_Int_Tables_number   1
_chemical_formula_structural   MnSnO3
_chemical_formula_sum   'Mn4 Sn4 O12'
_cell_volume   232.78233282
_cell_formula_units_Z   4
loop_
 _symmetry_equiv_pos_site_id
 _symmetry_equiv_pos_as_xyz
  1  'x, y, z'
loop_
 _atom_site_type_symbol
 _atom_site_label
 _atom_site_symmetry_multiplicity
 _atom_site_fract_x
 _atom_site_fract_y
 _atom_site_fract_z
 _atom_site_occupancy
  Mn  Mn0  1  0.98864489  0.05139928  0.25000057  1
  Mn  Mn1  1  0.51135539  0.55140047  0.25000057  1
  Mn  Mn2  1  0.48864480  0.44860011  0.75000042  1
  Mn  Mn3  1  0.01135530  0.94859949  0.75000042  1
  O  O4  1  0.68165877  0.31330543  0.06965510  1
  O  O5  1  0.81833965  0.81330482  0.06965510  1
  O  O6  1  0.13125009  0.42921535  0.25000057  1
  O  O7  1  0.36875000  0.92921654  0.25000057  1
  O  O8  1  0.68165877  0.31330543  0.43034475  1
  O  O9  1  0.81833965  0.81330482  0.43034475  1
  O  O10  1  0.18166053  0.18669575  0.56965496  1
  O  O11  1  0.31833956  0.68669514  0.56965496  1
  O  O12  1  0.63125019  0.07078403  0.75000042  1
  O  O13  1  0.86875009  0.57078342  0.75000042  1
  O  O14  1  0.18166053  0.18669575  0.93034461  1
  O  O15  1  0.31833956  0.68669514  0.93034461  1
  Sn  Sn16  1  0.50000009  0.00000000  0.00000000  1
  Sn  Sn17  1  0.00000000  0.49999938  0.00000000  1
  Sn  Sn18  1  0.50000009  0.00000000  0.49999986  1
  Sn  Sn19  1  0.00000000  0.49999938  0.49999986  1
