# generated using pymatgen
data_MnSnO3
_symmetry_space_group_name_H-M   'P 1'
_cell_length_a   3.97358895
_cell_length_b   3.97358895
_cell_length_c   4.18957145
_cell_angle_alpha   90.00000000
_cell_angle_beta   90.00000000
_cell_angle_gamma   90.00000000
_symmetry_Int_Tables_number   1
_chemical_formula_structural   MnSnO3
_chemical_formula_sum   'Mn1 Sn1 O3'
_cell_volume   66.15085765
_cell_formula_units_Z   1
loop_
 _symmetry_equiv_pos_site_id
 _symmetry_equiv_pos_as_xyz
  1  'x, y, z'
loop_
 _atom_site_type_symbol
 _atom_site_label
 _atom_site_symmetry_multiplicity
 _atom_site_fract_x
 _atom_site_fract_y
 _atom_site_fract_z
 _atom_site_occupancy
  Mn  Mn0  1  0.00000000  0.00000000  0.91246087  1
  O  O1  1  0.50000139  0.50000139  0.09436765  1
  O  O2  1  0.50000139  0.00000000  0.66476489  1
  O  O3  1  0.00000000  0.50000139  0.66476489  1
  Sn  Sn4  1  0.50000139  0.50000139  0.56364715  1
