# generated using pymatgen
data_RbZnF3
_symmetry_space_group_name_H-M   'P 1'
_cell_length_a   4.06858114
_cell_length_b   4.06858114
_cell_length_c   4.06858099
_cell_angle_alpha   90.00000775
_cell_angle_beta   90.00000775
_cell_angle_gamma   90.00001191
_symmetry_Int_Tables_number   1
_chemical_formula_structural   RbZnF3
_chemical_formula_sum   'Rb1 Zn1 F3'
_cell_volume   67.34865510
_cell_formula_units_Z   1
loop_
 _symmetry_equiv_pos_site_id
 _symmetry_equiv_pos_as_xyz
  1  'x, y, z'
loop_
 _atom_site_type_symbol
 _atom_site_label
 _atom_site_symmetry_multiplicity
 _atom_site_fract_x
 _atom_site_fract_y
 _atom_site_fract_z
 _atom_site_occupancy
  F  F0  1  0.50000143  0.50000143  0.00000000  1
  F  F1  1  0.49999999  0.00000000  0.50000143  1
  F  F2  1  0.00000000  0.49999999  0.50000143  1
  Rb  Rb3  1  0.00000000  0.00000000  0.00000000  1
  Zn  Zn4  1  0.50000085  0.50000085  0.50000085  1
