# generated using pymatgen
data_PrAsO3
_symmetry_space_group_name_H-M   'P 1'
_cell_length_a   5.59548995
_cell_length_b   5.97251204
_cell_length_c   8.07017866
_cell_angle_alpha   90.00000000
_cell_angle_beta   90.00000000
_cell_angle_gamma   90.00000000
_symmetry_Int_Tables_number   1
_chemical_formula_structural   PrAsO3
_chemical_formula_sum   'Pr4 As4 O12'
_cell_volume   269.69835857
_cell_formula_units_Z   4
loop_
 _symmetry_equiv_pos_site_id
 _symmetry_equiv_pos_as_xyz
  1  'x, y, z'
loop_
 _atom_site_type_symbol
 _atom_site_label
 _atom_site_symmetry_multiplicity
 _atom_site_fract_x
 _atom_site_fract_y
 _atom_site_fract_z
 _atom_site_occupancy
  As  As0  1  0.50000090  0.00000000  0.00000000  1
  As  As1  1  0.00000000  0.50000067  0.00000000  1
  As  As2  1  0.50000090  0.00000000  0.50000008  1
  As  As3  1  0.00000000  0.50000067  0.50000008  1
  O  O4  1  0.69077418  0.30471768  0.05805696  1
  O  O5  1  0.80922494  0.80471834  0.05805696  1
  O  O6  1  0.11582185  0.45604429  0.25000066  1
  O  O7  1  0.38417726  0.95604495  0.25000066  1
  O  O8  1  0.69077418  0.30471768  0.44194313  1
  O  O9  1  0.80922494  0.80471834  0.44194313  1
  O  O10  1  0.19077507  0.19528131  0.55805704  1
  O  O11  1  0.30922583  0.69528198  0.55805704  1
  O  O12  1  0.61582275  0.04395470  0.75000074  1
  O  O13  1  0.88417816  0.54395537  0.75000074  1
  O  O14  1  0.19077507  0.19528131  0.94194321  1
  O  O15  1  0.30922583  0.69528198  0.94194321  1
  Pr  Pr16  1  0.98040208  0.06878178  0.25000066  1
  Pr  Pr17  1  0.51959882  0.56878077  0.25000066  1
  Pr  Pr18  1  0.48040297  0.43121889  0.75000074  1
  Pr  Pr19  1  0.01959793  0.93121788  0.75000074  1
