# generated using pymatgen
data_TiInO3
_symmetry_space_group_name_H-M   'P 1'
_cell_length_a   5.34691165
_cell_length_b   5.56469400
_cell_length_c   7.85854155
_cell_angle_alpha   90.00000000
_cell_angle_beta   90.00000000
_cell_angle_gamma   90.00000000
_symmetry_Int_Tables_number   1
_chemical_formula_structural   TiInO3
_chemical_formula_sum   'Ti4 In4 O12'
_cell_volume   233.82247277
_cell_formula_units_Z   4
loop_
 _symmetry_equiv_pos_site_id
 _symmetry_equiv_pos_as_xyz
  1  'x, y, z'
loop_
 _atom_site_type_symbol
 _atom_site_label
 _atom_site_symmetry_multiplicity
 _atom_site_fract_x
 _atom_site_fract_y
 _atom_site_fract_z
 _atom_site_occupancy
  In  In0  1  0.98524351  0.05468944  0.25000059  1
  In  In1  1  0.51475696  0.55468998  0.25000059  1
  In  In2  1  0.48524273  0.44531110  0.75000049  1
  In  In3  1  0.01475618  0.94531164  0.75000049  1
  O  O4  1  0.68895659  0.30846620  0.06173156  1
  O  O5  1  0.81104389  0.80846674  0.06173156  1
  O  O6  1  0.11804010  0.45753280  0.25000059  1
  O  O7  1  0.38195881  0.95753333  0.25000059  1
  O  O8  1  0.68895659  0.30846620  0.43826835  1
  O  O9  1  0.81104389  0.80846674  0.43826835  1
  O  O10  1  0.18895581  0.19153254  0.56173146  1
  O  O11  1  0.31104498  0.69153308  0.56173146  1
  O  O12  1  0.61804088  0.04246595  0.75000049  1
  O  O13  1  0.88195959  0.54246649  0.75000049  1
  O  O14  1  0.18895581  0.19153254  0.93826825  1
  O  O15  1  0.31104498  0.69153308  0.93826825  1
  Ti  Ti16  1  0.50000078  0.00000000  0.00000000  1
  Ti  Ti17  1  0.00000000  0.50000054  0.00000000  1
  Ti  Ti18  1  0.50000078  0.00000000  0.49999990  1
  Ti  Ti19  1  0.00000000  0.50000054  0.49999990  1
