# generated using pymatgen
data_NdNbO3
_symmetry_space_group_name_H-M   'P 1'
_cell_length_a   5.51277828
_cell_length_b   6.02226880
_cell_length_c   7.84538894
_cell_angle_alpha   90.00000000
_cell_angle_beta   90.00000000
_cell_angle_gamma   90.00000000
_symmetry_Int_Tables_number   1
_chemical_formula_structural   NdNbO3
_chemical_formula_sum   'Nd4 Nb4 O12'
_cell_volume   260.46246164
_cell_formula_units_Z   4
loop_
 _symmetry_equiv_pos_site_id
 _symmetry_equiv_pos_as_xyz
  1  'x, y, z'
loop_
 _atom_site_type_symbol
 _atom_site_label
 _atom_site_symmetry_multiplicity
 _atom_site_fract_x
 _atom_site_fract_y
 _atom_site_fract_z
 _atom_site_occupancy
  Nb  Nb0  1  0.50000016  0.00000000  0.00000000  1
  Nb  Nb1  1  0.00000000  0.49999927  0.00000000  1
  Nb  Nb2  1  0.50000016  0.00000000  0.49999943  1
  Nb  Nb3  1  0.00000000  0.49999927  0.49999943  1
  Nd  Nd4  1  0.96909575  0.07975400  0.25000035  1
  Nd  Nd5  1  0.53090472  0.57975493  0.25000035  1
  Nd  Nd6  1  0.46909559  0.42024527  0.74999978  1
  Nd  Nd7  1  0.03090456  0.92024454  0.74999978  1
  O  O8  1  0.68907542  0.29604623  0.04868592  1
  O  O9  1  0.81092505  0.79604550  0.04868592  1
  O  O10  1  0.13316335  0.45168193  0.25000035  1
  O  O11  1  0.36683681  0.95168286  0.25000035  1
  O  O12  1  0.68907542  0.29604623  0.45131478  1
  O  O13  1  0.81092505  0.79604550  0.45131478  1
  O  O14  1  0.18907526  0.20395470  0.54868535  1
  O  O15  1  0.31092489  0.70395396  0.54868535  1
  O  O16  1  0.63316350  0.04831734  0.74999978  1
  O  O17  1  0.86683697  0.54831827  0.74999978  1
  O  O18  1  0.18907526  0.20395470  0.95131421  1
  O  O19  1  0.31092489  0.70395396  0.95131421  1
