# generated using pymatgen
data_BiPdO3
_symmetry_space_group_name_H-M   'P 1'
_cell_length_a   5.51205937
_cell_length_b   5.95403911
_cell_length_c   7.78136536
_cell_angle_alpha   90.00000000
_cell_angle_beta   90.00000000
_cell_angle_gamma   90.00000000
_symmetry_Int_Tables_number   1
_chemical_formula_structural   BiPdO3
_chemical_formula_sum   'Bi4 Pd4 O12'
_cell_volume   255.37676284
_cell_formula_units_Z   4
loop_
 _symmetry_equiv_pos_site_id
 _symmetry_equiv_pos_as_xyz
  1  'x, y, z'
loop_
 _atom_site_type_symbol
 _atom_site_label
 _atom_site_symmetry_multiplicity
 _atom_site_fract_x
 _atom_site_fract_y
 _atom_site_fract_z
 _atom_site_occupancy
  Bi  Bi0  1  0.98485332  0.06324950  0.24999983  1
  Bi  Bi1  1  0.51514685  0.56324958  0.24999983  1
  Bi  Bi2  1  0.48485327  0.43675057  0.74999948  1
  Bi  Bi3  1  0.01514679  0.93675065  0.74999948  1
  O  O4  1  0.67160742  0.31236778  0.04604847  1
  O  O5  1  0.82839275  0.81236786  0.04604847  1
  O  O6  1  0.12374322  0.45430840  0.24999983  1
  O  O7  1  0.37625683  0.95430680  0.24999983  1
  O  O8  1  0.67160742  0.31236778  0.45395247  1
  O  O9  1  0.82839275  0.81236786  0.45395247  1
  O  O10  1  0.17160737  0.18763229  0.54604813  1
  O  O11  1  0.32839269  0.68763237  0.54604813  1
  O  O12  1  0.62374328  0.04569167  0.74999948  1
  O  O13  1  0.87625689  0.54569175  0.74999948  1
  O  O14  1  0.17160737  0.18763229  0.95395212  1
  O  O15  1  0.32839269  0.68763237  0.95395212  1
  Pd  Pd16  1  0.50000006  0.00000000  0.00000000  1
  Pd  Pd17  1  0.00000000  0.50000007  0.00000000  1
  Pd  Pd18  1  0.50000006  0.00000000  0.49999966  1
  Pd  Pd19  1  0.00000000  0.50000007  0.49999966  1
