# generated using pymatgen
data_TmSbO3
_symmetry_space_group_name_H-M   'P 1'
_cell_length_a   4.22928900
_cell_length_b   4.22928900
_cell_length_c   4.22928900
_cell_angle_alpha   90.00000000
_cell_angle_beta   90.00000000
_cell_angle_gamma   90.00000000
_symmetry_Int_Tables_number   1
_chemical_formula_structural   TmSbO3
_chemical_formula_sum   'Tm1 Sb1 O3'
_cell_volume   75.64880786
_cell_formula_units_Z   1
loop_
 _symmetry_equiv_pos_site_id
 _symmetry_equiv_pos_as_xyz
  1  'x, y, z'
loop_
 _atom_site_type_symbol
 _atom_site_label
 _atom_site_symmetry_multiplicity
 _atom_site_fract_x
 _atom_site_fract_y
 _atom_site_fract_z
 _atom_site_occupancy
  O  O0  1  0.49999894  0.49999894  0.00000000  1
  O  O1  1  0.49999894  0.00000000  0.49999894  1
  O  O2  1  0.00000000  0.49999894  0.49999894  1
  Sb  Sb3  1  0.00000000  0.00000000  0.00000000  1
  Tm  Tm4  1  0.49999894  0.49999894  0.49999894  1
