# generated using pymatgen
data_NpTlO3
_symmetry_space_group_name_H-M   'P 1'
_cell_length_a   6.13993297
_cell_length_b   6.13993297
_cell_length_c   6.13993349
_cell_angle_alpha   59.71183248
_cell_angle_beta   59.71183248
_cell_angle_gamma   59.71182776
_symmetry_Int_Tables_number   1
_chemical_formula_structural   NpTlO3
_chemical_formula_sum   'Np2 Tl2 O6'
_cell_volume   162.60130165
_cell_formula_units_Z   2
loop_
 _symmetry_equiv_pos_site_id
 _symmetry_equiv_pos_as_xyz
  1  'x, y, z'
loop_
 _atom_site_type_symbol
 _atom_site_label
 _atom_site_symmetry_multiplicity
 _atom_site_fract_x
 _atom_site_fract_y
 _atom_site_fract_z
 _atom_site_occupancy
  Np  Np0  1  0.00000000  0.00000000  0.00000000  1
  Np  Np1  1  0.50000024  0.50000024  0.50000010  1
  O  O2  1  0.74999784  0.26358242  0.23641857  1
  O  O3  1  0.73641962  0.76358065  0.25000008  1
  O  O4  1  0.23641669  0.74999968  0.26358245  1
  O  O5  1  0.76358313  0.25000014  0.73641708  1
  O  O6  1  0.26358020  0.23641917  0.74999946  1
  O  O7  1  0.25000198  0.73641740  0.76358097  1
  Tl  Tl8  1  0.24999979  0.24999979  0.24999972  1
  Tl  Tl9  1  0.75000003  0.75000003  0.74999982  1
