# generated using pymatgen
data_NpTlO3
_symmetry_space_group_name_H-M   'P 1'
_cell_length_a   5.91286635
_cell_length_b   6.15884287
_cell_length_c   8.59892248
_cell_angle_alpha   90.00000000
_cell_angle_beta   90.00000000
_cell_angle_gamma   90.00000000
_symmetry_Int_Tables_number   1
_chemical_formula_structural   NpTlO3
_chemical_formula_sum   'Np4 Tl4 O12'
_cell_volume   313.14192717
_cell_formula_units_Z   4
loop_
 _symmetry_equiv_pos_site_id
 _symmetry_equiv_pos_as_xyz
  1  'x, y, z'
loop_
 _atom_site_type_symbol
 _atom_site_label
 _atom_site_symmetry_multiplicity
 _atom_site_fract_x
 _atom_site_fract_y
 _atom_site_fract_z
 _atom_site_occupancy
  Np  Np0  1  0.49999946  0.00000000  0.00000000  1
  Np  Np1  1  0.00000000  0.49999977  0.00000000  1
  Np  Np2  1  0.49999946  0.00000000  0.49999986  1
  Np  Np3  1  0.00000000  0.49999977  0.49999986  1
  O  O4  1  0.68251331  0.31043981  0.05820729  1
  O  O5  1  0.81748508  0.81044120  0.05820729  1
  O  O6  1  0.12246007  0.45279772  0.24999993  1
  O  O7  1  0.37754109  0.95279749  0.24999993  1
  O  O8  1  0.68251331  0.31043981  0.44179140  1
  O  O9  1  0.81748508  0.81044120  0.44179140  1
  O  O10  1  0.18251385  0.18955996  0.55820831  1
  O  O11  1  0.31748730  0.68955973  0.55820831  1
  O  O12  1  0.62245953  0.04720367  0.75000095  1
  O  O13  1  0.87754055  0.54720344  0.75000095  1
  O  O14  1  0.18251385  0.18955996  0.94179242  1
  O  O15  1  0.31748730  0.68955973  0.94179242  1
  Tl  Tl16  1  0.98938986  0.04706404  0.24999993  1
  Tl  Tl17  1  0.51061022  0.54706380  0.24999993  1
  Tl  Tl18  1  0.48939040  0.45293573  0.75000095  1
  Tl  Tl19  1  0.01060907  0.95293550  0.75000095  1
