# generated using pymatgen
data_NaZrO3
_symmetry_space_group_name_H-M   'P 1'
_cell_length_a   5.68043820
_cell_length_b   5.82715284
_cell_length_c   7.98753571
_cell_angle_alpha   90.00000000
_cell_angle_beta   90.00000000
_cell_angle_gamma   90.00000000
_symmetry_Int_Tables_number   1
_chemical_formula_structural   NaZrO3
_chemical_formula_sum   'Na4 Zr4 O12'
_cell_volume   264.39367492
_cell_formula_units_Z   4
loop_
 _symmetry_equiv_pos_site_id
 _symmetry_equiv_pos_as_xyz
  1  'x, y, z'
loop_
 _atom_site_type_symbol
 _atom_site_label
 _atom_site_symmetry_multiplicity
 _atom_site_fract_x
 _atom_site_fract_y
 _atom_site_fract_z
 _atom_site_occupancy
  Na  Na0  1  0.98606829  0.03410757  0.24999826  1
  Na  Na1  1  0.51393042  0.53410646  0.24999826  1
  Na  Na2  1  0.48606990  0.46589305  0.74999853  1
  Na  Na3  1  0.01393202  0.96589366  0.74999853  1
  O  O4  1  0.71501350  0.28289630  0.05409678  1
  O  O5  1  0.78498874  0.78289692  0.05409678  1
  O  O6  1  0.10467326  0.47203842  0.24999826  1
  O  O7  1  0.39532690  0.97203903  0.24999826  1
  O  O8  1  0.71501350  0.28289630  0.44590348  1
  O  O9  1  0.78498874  0.78289692  0.44590348  1
  O  O10  1  0.21501158  0.21710431  0.55409705  1
  O  O11  1  0.28498858  0.71710492  0.55409705  1
  O  O12  1  0.60467342  0.02795877  0.74999853  1
  O  O13  1  0.89532881  0.52795938  0.74999853  1
  O  O14  1  0.21501158  0.21710431  0.94590375  1
  O  O15  1  0.28498858  0.71710492  0.94590375  1
  Zr  Zr16  1  0.50000016  0.00000000  0.00000000  1
  Zr  Zr17  1  0.00000000  0.50000061  0.00000000  1
  Zr  Zr18  1  0.50000016  0.00000000  0.50000027  1
  Zr  Zr19  1  0.00000000  0.50000061  0.50000027  1
