# generated using pymatgen
data_TaAuO3
_symmetry_space_group_name_H-M   'P 1'
_cell_length_a   5.49295876
_cell_length_b   5.64353868
_cell_length_c   7.89437468
_cell_angle_alpha   90.00000000
_cell_angle_beta   90.00000000
_cell_angle_gamma   90.00000000
_symmetry_Int_Tables_number   1
_chemical_formula_structural   TaAuO3
_chemical_formula_sum   'Ta4 Au4 O12'
_cell_volume   244.72344596
_cell_formula_units_Z   4
loop_
 _symmetry_equiv_pos_site_id
 _symmetry_equiv_pos_as_xyz
  1  'x, y, z'
loop_
 _atom_site_type_symbol
 _atom_site_label
 _atom_site_symmetry_multiplicity
 _atom_site_fract_x
 _atom_site_fract_y
 _atom_site_fract_z
 _atom_site_occupancy
  Au  Au0  1  0.49650837  0.49578113  0.25000080  1
  Au  Au1  1  0.00348992  0.99578125  0.25000080  1
  Au  Au2  1  0.99650848  0.00421898  0.74999987  1
  Au  Au3  1  0.50349186  0.50421910  0.74999987  1
  O  O4  1  0.71601848  0.28242918  0.03193920  1
  O  O5  1  0.78398186  0.78242930  0.03193920  1
  O  O6  1  0.06314812  0.48844354  0.25000080  1
  O  O7  1  0.43685200  0.98844366  0.25000080  1
  O  O8  1  0.71601848  0.28242918  0.46806114  1
  O  O9  1  0.78398186  0.78242930  0.46806114  1
  O  O10  1  0.21601837  0.21756917  0.53193827  1
  O  O11  1  0.28398174  0.71757105  0.53193827  1
  O  O12  1  0.56314823  0.01155658  0.74999987  1
  O  O13  1  0.93685211  0.51155670  0.74999987  1
  O  O14  1  0.21601837  0.21756917  0.96806148  1
  O  O15  1  0.28398174  0.71757105  0.96806148  1
  Ta  Ta16  1  0.50000011  0.00000000  0.00000000  1
  Ta  Ta17  1  0.00000000  0.50000012  0.00000000  1
  Ta  Ta18  1  0.50000011  0.00000000  0.50000034  1
  Ta  Ta19  1  0.00000000  0.50000012  0.50000034  1
