# generated using pymatgen
data_DyNiO3
_symmetry_space_group_name_H-M   'P 1'
_cell_length_a   2.89991176
_cell_length_b   2.89991176
_cell_length_c   3.10557723
_cell_angle_alpha   90.00000000
_cell_angle_beta   90.00000000
_cell_angle_gamma   90.00000000
_symmetry_Int_Tables_number   1
_chemical_formula_structural   DyNiO3
_chemical_formula_sum   'Dy1 Ni1 O3'
_cell_volume   26.11631512
_cell_formula_units_Z   1
loop_
 _symmetry_equiv_pos_site_id
 _symmetry_equiv_pos_as_xyz
  1  'x, y, z'
loop_
 _atom_site_type_symbol
 _atom_site_label
 _atom_site_symmetry_multiplicity
 _atom_site_fract_x
 _atom_site_fract_y
 _atom_site_fract_z
 _atom_site_occupancy
  Dy  Dy0  1  0.00000000  0.00000000  0.13875359  1
  Ni  Ni1  1  0.50000142  0.50000142  0.71107554  1
  O  O2  1  0.50000142  0.50000142  0.91507537  1
  O  O3  1  0.50000142  0.00000000  0.56754667  1
  O  O4  1  0.00000000  0.50000142  0.56754667  1
