# generated using pymatgen
data_LaAlO3
_symmetry_space_group_name_H-M   'P 1'
_cell_length_a   5.36744519
_cell_length_b   5.35884385
_cell_length_c   7.57159043
_cell_angle_alpha   90.00000000
_cell_angle_beta   90.00000000
_cell_angle_gamma   90.00000000
_symmetry_Int_Tables_number   1
_chemical_formula_structural   LaAlO3
_chemical_formula_sum   'La4 Al4 O12'
_cell_volume   217.78393186
_cell_formula_units_Z   4
loop_
 _symmetry_equiv_pos_site_id
 _symmetry_equiv_pos_as_xyz
  1  'x, y, z'
loop_
 _atom_site_type_symbol
 _atom_site_label
 _atom_site_symmetry_multiplicity
 _atom_site_fract_x
 _atom_site_fract_y
 _atom_site_fract_z
 _atom_site_occupancy
  Al  Al0  1  0.49999952  0.00000000  0.00000000  1
  Al  Al1  1  0.00000000  0.49999964  0.00000000  1
  Al  Al2  1  0.49999952  0.00000000  0.50000063  1
  Al  Al3  1  0.00000000  0.49999964  0.50000063  1
  La  La4  1  0.99832971  0.00856715  0.24999900  1
  La  La5  1  0.50167070  0.50856865  0.24999900  1
  La  La6  1  0.49833019  0.49143249  0.74999963  1
  La  La7  1  0.00166932  0.99143027  0.74999963  1
  O  O8  1  0.73761349  0.26273391  0.02159520  1
  O  O9  1  0.76238692  0.76273355  0.02159520  1
  O  O10  1  0.04175357  0.49770624  0.24999900  1
  O  O11  1  0.45824595  0.99770588  0.24999900  1
  O  O12  1  0.73761349  0.26273391  0.47840543  1
  O  O13  1  0.76238692  0.76273355  0.47840543  1
  O  O14  1  0.23761211  0.23726760  0.52159451  1
  O  O15  1  0.26238740  0.73726724  0.52159451  1
  O  O16  1  0.54175309  0.00229527  0.74999963  1
  O  O17  1  0.95824733  0.50229491  0.74999963  1
  O  O18  1  0.23761211  0.23726760  0.97840606  1
  O  O19  1  0.26238740  0.73726724  0.97840606  1
