# generated using pymatgen
data_CdTeO3
_symmetry_space_group_name_H-M   'P 1'
_cell_length_a   5.67472644
_cell_length_b   5.84390856
_cell_length_c   8.20780510
_cell_angle_alpha   90.00000000
_cell_angle_beta   90.00000000
_cell_angle_gamma   90.00000000
_symmetry_Int_Tables_number   1
_chemical_formula_structural   CdTeO3
_chemical_formula_sum   'Cd4 Te4 O12'
_cell_volume   272.19201283
_cell_formula_units_Z   4
loop_
 _symmetry_equiv_pos_site_id
 _symmetry_equiv_pos_as_xyz
  1  'x, y, z'
loop_
 _atom_site_type_symbol
 _atom_site_label
 _atom_site_symmetry_multiplicity
 _atom_site_fract_x
 _atom_site_fract_y
 _atom_site_fract_z
 _atom_site_occupancy
  Cd  Cd0  1  0.98878775  0.04640901  0.24999984  1
  Cd  Cd1  1  0.51121231  0.54640828  0.24999984  1
  Cd  Cd2  1  0.48878832  0.45359197  0.74999953  1
  Cd  Cd3  1  0.01121288  0.95359124  0.74999953  1
  O  O4  1  0.68813361  0.30904488  0.06698502  1
  O  O5  1  0.81186645  0.80904586  0.06698502  1
  O  O6  1  0.12708454  0.42331258  0.24999984  1
  O  O7  1  0.37291489  0.92331185  0.24999984  1
  O  O8  1  0.68813361  0.30904488  0.43301467  1
  O  O9  1  0.81186645  0.80904586  0.43301467  1
  O  O10  1  0.18813242  0.19095439  0.56698471  1
  O  O11  1  0.31186702  0.69095537  0.56698471  1
  O  O12  1  0.62708574  0.07668669  0.74999953  1
  O  O13  1  0.87291433  0.57668767  0.74999953  1
  O  O14  1  0.18813242  0.19095439  0.93301436  1
  O  O15  1  0.31186702  0.69095537  0.93301436  1
  Te  Te16  1  0.49999943  0.00000000  0.00000000  1
  Te  Te17  1  0.00000000  0.49999927  0.00000000  1
  Te  Te18  1  0.49999943  0.00000000  0.49999969  1
  Te  Te19  1  0.00000000  0.49999927  0.49999969  1
