# generated using pymatgen
data_CeAgO3
_symmetry_space_group_name_H-M   'P 1'
_cell_length_a   5.63512089
_cell_length_b   6.02730163
_cell_length_c   8.06233911
_cell_angle_alpha   90.00000000
_cell_angle_beta   90.00000000
_cell_angle_gamma   90.00000000
_symmetry_Int_Tables_number   1
_chemical_formula_structural   CeAgO3
_chemical_formula_sum   'Ce4 Ag4 O12'
_cell_volume   273.83390784
_cell_formula_units_Z   4
loop_
 _symmetry_equiv_pos_site_id
 _symmetry_equiv_pos_as_xyz
  1  'x, y, z'
loop_
 _atom_site_type_symbol
 _atom_site_label
 _atom_site_symmetry_multiplicity
 _atom_site_fract_x
 _atom_site_fract_y
 _atom_site_fract_z
 _atom_site_occupancy
  Ag  Ag0  1  0.49999992  0.00000000  0.00000000  1
  Ag  Ag1  1  0.00000000  0.49999987  0.00000000  1
  Ag  Ag2  1  0.49999992  0.00000000  0.50000006  1
  Ag  Ag3  1  0.00000000  0.49999987  0.50000006  1
  Ce  Ce4  1  0.97886986  0.07220644  0.24999941  1
  Ce  Ce5  1  0.52112990  0.57220631  0.24999941  1
  Ce  Ce6  1  0.47886994  0.42779342  0.74999946  1
  Ce  Ce7  1  0.02112998  0.92779329  0.74999946  1
  O  O8  1  0.69813587  0.30585328  0.05626903  1
  O  O9  1  0.80186390  0.80585315  0.05626903  1
  O  O10  1  0.11201179  0.46204424  0.24999941  1
  O  O11  1  0.38798813  0.96204576  0.24999941  1
  O  O12  1  0.69813587  0.30585328  0.44373103  1
  O  O13  1  0.80186390  0.80585315  0.44373103  1
  O  O14  1  0.19813594  0.19414658  0.55626909  1
  O  O15  1  0.30186398  0.69414645  0.55626909  1
  O  O16  1  0.61201171  0.03795562  0.74999946  1
  O  O17  1  0.88798805  0.53795549  0.74999946  1
  O  O18  1  0.19813594  0.19414658  0.94373108  1
  O  O19  1  0.30186398  0.69414645  0.94373108  1
