# generated using pymatgen
data_ScPbO3
_symmetry_space_group_name_H-M   'P 1'
_cell_length_a   4.05513443
_cell_length_b   4.05513443
_cell_length_c   4.32132056
_cell_angle_alpha   90.00000000
_cell_angle_beta   90.00000000
_cell_angle_gamma   90.00000000
_symmetry_Int_Tables_number   1
_chemical_formula_structural   ScPbO3
_chemical_formula_sum   'Sc1 Pb1 O3'
_cell_volume   71.06029352
_cell_formula_units_Z   1
loop_
 _symmetry_equiv_pos_site_id
 _symmetry_equiv_pos_as_xyz
  1  'x, y, z'
loop_
 _atom_site_type_symbol
 _atom_site_label
 _atom_site_symmetry_multiplicity
 _atom_site_fract_x
 _atom_site_fract_y
 _atom_site_fract_z
 _atom_site_occupancy
  O  O0  1  0.50000069  0.50000069  0.09144890  1
  O  O1  1  0.50000069  0.00000000  0.64575862  1
  O  O2  1  0.00000000  0.50000069  0.64575862  1
  Pb  Pb3  1  0.00000000  0.00000000  0.95839003  1
  Sc  Sc4  1  0.50000069  0.50000069  0.55864173  1
