# generated using pymatgen
data_LuCuO3
_symmetry_space_group_name_H-M   'P 1'
_cell_length_a   5.12095862
_cell_length_b   5.80873280
_cell_length_c   7.05857674
_cell_angle_alpha   90.00000000
_cell_angle_beta   90.00000000
_cell_angle_gamma   90.00000000
_symmetry_Int_Tables_number   1
_chemical_formula_structural   LuCuO3
_chemical_formula_sum   'Lu4 Cu4 O12'
_cell_volume   209.96640206
_cell_formula_units_Z   4
loop_
 _symmetry_equiv_pos_site_id
 _symmetry_equiv_pos_as_xyz
  1  'x, y, z'
loop_
 _atom_site_type_symbol
 _atom_site_label
 _atom_site_symmetry_multiplicity
 _atom_site_fract_x
 _atom_site_fract_y
 _atom_site_fract_z
 _atom_site_occupancy
  Cu  Cu0  1  0.50000014  0.00000000  0.00000000  1
  Cu  Cu1  1  0.00000000  0.50000062  0.00000000  1
  Cu  Cu2  1  0.50000014  0.00000000  0.50000023  1
  Cu  Cu3  1  0.00000000  0.50000062  0.50000023  1
  Lu  Lu4  1  0.97439764  0.09924023  0.24999941  1
  Lu  Lu5  1  0.52560276  0.59924085  0.24999941  1
  Lu  Lu6  1  0.47439751  0.40075866  0.74999964  1
  Lu  Lu7  1  0.02560263  0.90075928  0.74999964  1
  O  O8  1  0.70169870  0.33630227  0.05505642  1
  O  O9  1  0.79830171  0.83630289  0.05505642  1
  O  O10  1  0.12619512  0.45900545  0.24999941  1
  O  O11  1  0.37380501  0.95900435  0.24999941  1
  O  O12  1  0.70169870  0.33630227  0.44494381  1
  O  O13  1  0.79830171  0.83630289  0.44494381  1
  O  O14  1  0.20169856  0.16369835  0.55505666  1
  O  O15  1  0.29830157  0.66369725  0.55505666  1
  O  O16  1  0.62619526  0.04099517  0.74999964  1
  O  O17  1  0.87380319  0.54099579  0.74999964  1
  O  O18  1  0.20169856  0.16369835  0.94494404  1
  O  O19  1  0.29830157  0.66369725  0.94494404  1
