# generated using pymatgen
data_UPbO3
_symmetry_space_group_name_H-M   'P 1'
_cell_length_a   6.03194437
_cell_length_b   6.27763216
_cell_length_c   8.71059326
_cell_angle_alpha   90.00000000
_cell_angle_beta   90.00000000
_cell_angle_gamma   90.00000000
_symmetry_Int_Tables_number   1
_chemical_formula_structural   UPbO3
_chemical_formula_sum   'U4 Pb4 O12'
_cell_volume   329.83818115
_cell_formula_units_Z   4
loop_
 _symmetry_equiv_pos_site_id
 _symmetry_equiv_pos_as_xyz
  1  'x, y, z'
loop_
 _atom_site_type_symbol
 _atom_site_label
 _atom_site_symmetry_multiplicity
 _atom_site_fract_x
 _atom_site_fract_y
 _atom_site_fract_z
 _atom_site_occupancy
  O  O0  1  0.68996492  0.30886327  0.05544628  1
  O  O1  1  0.81003400  0.80886389  0.05544628  1
  O  O2  1  0.11492977  0.46982523  0.24999905  1
  O  O3  1  0.38506986  0.96982586  0.24999905  1
  O  O4  1  0.68996492  0.30886327  0.44455411  1
  O  O5  1  0.81003400  0.80886389  0.44455411  1
  O  O6  1  0.18996528  0.19113576  0.55544667  1
  O  O7  1  0.31003602  0.69113639  0.55544667  1
  O  O8  1  0.61493107  0.03017380  0.74999943  1
  O  O9  1  0.88507116  0.53017442  0.74999943  1
  O  O10  1  0.18996528  0.19113576  0.94455449  1
  O  O11  1  0.31003602  0.69113639  0.94455449  1
  Pb  Pb12  1  0.99046006  0.03868815  0.24999905  1
  Pb  Pb13  1  0.50954051  0.53868878  0.24999905  1
  Pb  Pb14  1  0.49046043  0.46131088  0.74999943  1
  Pb  Pb15  1  0.00953921  0.96131150  0.74999943  1
  U  U16  1  0.49999798  0.00000000  0.00000000  1
  U  U17  1  0.00000000  0.50000062  0.00000000  1
  U  U18  1  0.49999798  0.00000000  0.50000039  1
  U  U19  1  0.00000000  0.50000062  0.50000039  1
