# generated using pymatgen
data_NaScO3
_symmetry_space_group_name_H-M   'P 1'
_cell_length_a   5.54452072
_cell_length_b   5.80352726
_cell_length_c   7.94123939
_cell_angle_alpha   90.00000000
_cell_angle_beta   90.00000000
_cell_angle_gamma   90.00000000
_symmetry_Int_Tables_number   1
_chemical_formula_structural   NaScO3
_chemical_formula_sum   'Na4 Sc4 O12'
_cell_volume   255.53143155
_cell_formula_units_Z   4
loop_
 _symmetry_equiv_pos_site_id
 _symmetry_equiv_pos_as_xyz
  1  'x, y, z'
loop_
 _atom_site_type_symbol
 _atom_site_label
 _atom_site_symmetry_multiplicity
 _atom_site_fract_x
 _atom_site_fract_y
 _atom_site_fract_z
 _atom_site_occupancy
  Na  Na0  1  0.99050220  0.03829568  0.25000002  1
  Na  Na1  1  0.50949760  0.53829505  0.25000002  1
  Na  Na2  1  0.49050227  0.46170542  0.75000006  1
  Na  Na3  1  0.00949766  0.96170480  0.75000006  1
  O  O4  1  0.70368030  0.29224985  0.04823303  1
  O  O5  1  0.79631951  0.79225095  0.04823303  1
  O  O6  1  0.09067871  0.45720299  0.25000002  1
  O  O7  1  0.40932122  0.95720408  0.25000002  1
  O  O8  1  0.70368030  0.29224985  0.45176701  1
  O  O9  1  0.79631951  0.79225095  0.45176701  1
  O  O10  1  0.20368036  0.20774952  0.54823306  1
  O  O11  1  0.29631957  0.70775062  0.54823306  1
  O  O12  1  0.59067865  0.04279639  0.75000006  1
  O  O13  1  0.90932116  0.54279576  0.75000006  1
  O  O14  1  0.20368036  0.20774952  0.95176831  1
  O  O15  1  0.29631957  0.70775062  0.95176831  1
  Sc  Sc16  1  0.49999993  0.00000000  0.00000000  1
  Sc  Sc17  1  0.00000000  0.49999937  0.00000000  1
  Sc  Sc18  1  0.49999993  0.00000000  0.50000004  1
  Sc  Sc19  1  0.00000000  0.49999937  0.50000004  1
