# generated using pymatgen
data_BaLuO3
_symmetry_space_group_name_H-M   'P 1'
_cell_length_a   6.08480504
_cell_length_b   6.08698239
_cell_length_c   8.61295494
_cell_angle_alpha   90.00000000
_cell_angle_beta   90.00000000
_cell_angle_gamma   90.00000000
_symmetry_Int_Tables_number   1
_chemical_formula_structural   BaLuO3
_chemical_formula_sum   'Ba4 Lu4 O12'
_cell_volume   319.00749593
_cell_formula_units_Z   4
loop_
 _symmetry_equiv_pos_site_id
 _symmetry_equiv_pos_as_xyz
  1  'x, y, z'
loop_
 _atom_site_type_symbol
 _atom_site_label
 _atom_site_symmetry_multiplicity
 _atom_site_fract_x
 _atom_site_fract_y
 _atom_site_fract_z
 _atom_site_occupancy
  Ba  Ba0  1  0.99729736  0.01621493  0.25000015  1
  Ba  Ba1  1  0.50270140  0.51621638  0.25000015  1
  Ba  Ba2  1  0.49729777  0.48378487  0.75000044  1
  Ba  Ba3  1  0.00270346  0.98378303  0.75000044  1
  Lu  Lu4  1  0.49999959  0.00000000  0.00000000  1
  Lu  Lu5  1  0.00000000  0.49999980  0.00000000  1
  Lu  Lu6  1  0.49999959  0.00000000  0.50000029  1
  Lu  Lu7  1  0.00000000  0.49999980  0.50000029  1
  O  O8  1  0.72515717  0.27451205  0.02356682  1
  O  O9  1  0.77484159  0.77451349  0.02356682  1
  O  O10  1  0.04578618  0.48976485  0.25000015  1
  O  O11  1  0.45421505  0.98976301  0.25000015  1
  O  O12  1  0.72515717  0.27451205  0.47643347  1
  O  O13  1  0.77484159  0.77451349  0.47643347  1
  O  O14  1  0.22515758  0.22548776  0.52356712  1
  O  O15  1  0.27484036  0.72548756  0.52356712  1
  O  O16  1  0.54578577  0.01023496  0.75000044  1
  O  O17  1  0.95421463  0.51023640  0.75000044  1
  O  O18  1  0.22515758  0.22548776  0.97643260  1
  O  O19  1  0.27484036  0.72548756  0.97643260  1
