# generated using pymatgen
data_AgSbO3
_symmetry_space_group_name_H-M   'P 1'
_cell_length_a   3.97260378
_cell_length_b   3.97260378
_cell_length_c   4.34744731
_cell_angle_alpha   90.00000000
_cell_angle_beta   90.00000000
_cell_angle_gamma   90.00000000
_symmetry_Int_Tables_number   1
_chemical_formula_structural   AgSbO3
_chemical_formula_sum   'Ag1 Sb1 O3'
_cell_volume   68.60959073
_cell_formula_units_Z   1
loop_
 _symmetry_equiv_pos_site_id
 _symmetry_equiv_pos_as_xyz
  1  'x, y, z'
loop_
 _atom_site_type_symbol
 _atom_site_label
 _atom_site_symmetry_multiplicity
 _atom_site_fract_x
 _atom_site_fract_y
 _atom_site_fract_z
 _atom_site_occupancy
  Ag  Ag0  1  0.49999952  0.49999952  0.55422868  1
  O  O1  1  0.49999952  0.49999952  0.07055175  1
  O  O2  1  0.49999952  0.00000000  0.66781718  1
  O  O3  1  0.00000000  0.49999952  0.66781718  1
  Sb  Sb4  1  0.00000000  0.00000000  0.93957896  1
