# generated using pymatgen
data_AgSbO3
_symmetry_space_group_name_H-M   'P 1'
_cell_length_a   5.53913251
_cell_length_b   5.59087966
_cell_length_c   7.84768061
_cell_angle_alpha   90.00000000
_cell_angle_beta   90.00000000
_cell_angle_gamma   90.00000000
_symmetry_Int_Tables_number   1
_chemical_formula_structural   AgSbO3
_chemical_formula_sum   'Ag4 Sb4 O12'
_cell_volume   243.03186432
_cell_formula_units_Z   4
loop_
 _symmetry_equiv_pos_site_id
 _symmetry_equiv_pos_as_xyz
  1  'x, y, z'
loop_
 _atom_site_type_symbol
 _atom_site_label
 _atom_site_symmetry_multiplicity
 _atom_site_fract_x
 _atom_site_fract_y
 _atom_site_fract_z
 _atom_site_occupancy
  Ag  Ag0  1  0.99668856  0.01974645  0.24999998  1
  Ag  Ag1  1  0.50331166  0.51974648  0.24999998  1
  Ag  Ag2  1  0.49668788  0.48025359  0.74999994  1
  Ag  Ag3  1  0.00331099  0.98025362  0.74999994  1
  O  O4  1  0.70993788  0.28822119  0.04589254  1
  O  O5  1  0.79006234  0.78822122  0.04589254  1
  O  O6  1  0.08817807  0.48304206  0.24999998  1
  O  O7  1  0.41182261  0.98304209  0.24999998  1
  O  O8  1  0.70993788  0.28822119  0.45410742  1
  O  O9  1  0.79006234  0.78822122  0.45410742  1
  O  O10  1  0.20993901  0.21177884  0.54589250  1
  O  O11  1  0.29006167  0.71177887  0.54589250  1
  O  O12  1  0.58817874  0.01695798  0.74999994  1
  O  O13  1  0.91182148  0.51695801  0.74999994  1
  O  O14  1  0.20993901  0.21177884  0.95410738  1
  O  O15  1  0.29006167  0.71177887  0.95410738  1
  Sb  Sb16  1  0.50000068  0.00000000  0.00000000  1
  Sb  Sb17  1  0.00000000  0.50000003  0.00000000  1
  Sb  Sb18  1  0.50000068  0.00000000  0.49999996  1
  Sb  Sb19  1  0.00000000  0.50000003  0.49999996  1
