# generated using pymatgen
data_CsSnI3
_symmetry_space_group_name_H-M   'P 1'
_cell_length_a   8.73317100
_cell_length_b   8.87221000
_cell_length_c   12.66308200
_cell_angle_alpha   90.00000000
_cell_angle_beta   90.00000000
_cell_angle_gamma   90.00000000
_symmetry_Int_Tables_number   1
_chemical_formula_structural   CsSnI3
_chemical_formula_sum   'Cs4 Sn4 I12'
_cell_volume   981.16759395
_cell_formula_units_Z   4
loop_
 _symmetry_equiv_pos_site_id
 _symmetry_equiv_pos_as_xyz
  1  'x, y, z'
loop_
 _atom_site_type_symbol
 _atom_site_label
 _atom_site_symmetry_multiplicity
 _atom_site_fract_x
 _atom_site_fract_y
 _atom_site_fract_z
 _atom_site_occupancy
  Cs  Cs0  1  0.00468300  0.02333300  0.25000000  1
  Cs  Cs1  1  0.50468300  0.47666700  0.25000000  1
  Cs  Cs2  1  0.99531700  0.97666700  0.75000000  1
  Cs  Cs3  1  0.49531700  0.52333300  0.75000000  1
  Sn  Sn4  1  0.50000000  0.00000000  0.00000000  1
  Sn  Sn5  1  0.00000000  0.50000000  0.50000000  1
  Sn  Sn6  1  0.00000000  0.50000000  0.00000000  1
  Sn  Sn7  1  0.50000000  0.00000000  0.50000000  1
  I  I8  1  0.70309800  0.70367200  0.00756400  1
  I  I9  1  0.29690200  0.29632800  0.50756400  1
  I  I10  1  0.70309800  0.70367200  0.49243600  1
  I  I11  1  0.29690200  0.29632800  0.99243600  1
  I  I12  1  0.50264800  0.98001800  0.75000000  1
  I  I13  1  0.20309800  0.79632800  0.49243600  1
  I  I14  1  0.99735200  0.48001800  0.25000000  1
  I  I15  1  0.79690200  0.20367200  0.50756400  1
  I  I16  1  0.79690200  0.20367200  0.99243600  1
  I  I17  1  0.49735200  0.01998200  0.25000000  1
  I  I18  1  0.00264800  0.51998200  0.75000000  1
  I  I19  1  0.20309800  0.79632800  0.00756400  1
