# generated using pymatgen
data_AgOsO3
_symmetry_space_group_name_H-M   'P 1'
_cell_length_a   5.41296163
_cell_length_b   5.42542341
_cell_length_c   7.65399349
_cell_angle_alpha   90.00000000
_cell_angle_beta   90.00000000
_cell_angle_gamma   90.00000000
_symmetry_Int_Tables_number   1
_chemical_formula_structural   AgOsO3
_chemical_formula_sum   'Ag4 Os4 O12'
_cell_volume   224.77948603
_cell_formula_units_Z   4
loop_
 _symmetry_equiv_pos_site_id
 _symmetry_equiv_pos_as_xyz
  1  'x, y, z'
loop_
 _atom_site_type_symbol
 _atom_site_label
 _atom_site_symmetry_multiplicity
 _atom_site_fract_x
 _atom_site_fract_y
 _atom_site_fract_z
 _atom_site_occupancy
  Ag  Ag0  1  0.99251766  0.01711756  0.25000021  1
  Ag  Ag1  1  0.50748374  0.51711909  0.25000021  1
  Ag  Ag2  1  0.49251781  0.48288028  0.74999933  1
  Ag  Ag3  1  0.00748389  0.98288181  0.74999933  1
  O  O4  1  0.72581708  0.27376112  0.04231255  1
  O  O5  1  0.77418062  0.77375896  0.04231255  1
  O  O6  1  0.09311354  0.49957207  0.25000021  1
  O  O7  1  0.40688631  0.99957175  0.25000021  1
  O  O8  1  0.72581708  0.27376112  0.45768787  1
  O  O9  1  0.77418062  0.77375896  0.45768787  1
  O  O10  1  0.22581908  0.22624041  0.54231167  1
  O  O11  1  0.27418077  0.72624009  0.54231167  1
  O  O12  1  0.59311523  0.00042762  0.74999933  1
  O  O13  1  0.90688616  0.50042730  0.74999933  1
  O  O14  1  0.22581908  0.22624041  0.95768830  1
  O  O15  1  0.27418077  0.72624009  0.95768830  1
  Os  Os16  1  0.49999985  0.00000000  0.00000000  1
  Os  Os17  1  0.00000000  0.50000153  0.00000000  1
  Os  Os18  1  0.49999985  0.00000000  0.50000043  1
  Os  Os19  1  0.00000000  0.50000153  0.50000043  1
