# generated using pymatgen
data_ZnPbO3
_symmetry_space_group_name_H-M   'P 1'
_cell_length_a   5.31849824
_cell_length_b   5.54188727
_cell_length_c   8.01303975
_cell_angle_alpha   90.00000000
_cell_angle_beta   90.00000000
_cell_angle_gamma   90.00000000
_symmetry_Int_Tables_number   1
_chemical_formula_structural   ZnPbO3
_chemical_formula_sum   'Zn4 Pb4 O12'
_cell_volume   236.18048212
_cell_formula_units_Z   4
loop_
 _symmetry_equiv_pos_site_id
 _symmetry_equiv_pos_as_xyz
  1  'x, y, z'
loop_
 _atom_site_type_symbol
 _atom_site_label
 _atom_site_symmetry_multiplicity
 _atom_site_fract_x
 _atom_site_fract_y
 _atom_site_fract_z
 _atom_site_occupancy
  O  O0  1  0.69371650  0.30687019  0.07489417  1
  O  O1  1  0.80628399  0.80686953  0.07489417  1
  O  O2  1  0.14171482  0.42527931  0.25000001  1
  O  O3  1  0.35828535  0.92527865  0.25000001  1
  O  O4  1  0.69371650  0.30687019  0.42510584  1
  O  O5  1  0.80628399  0.80686953  0.42510584  1
  O  O6  1  0.19371634  0.19313096  0.57489419  1
  O  O7  1  0.30628383  0.69313030  0.57489419  1
  O  O8  1  0.64171498  0.07472003  0.75000002  1
  O  O9  1  0.85828551  0.57472118  0.75000002  1
  O  O10  1  0.19371634  0.19313096  0.92510586  1
  O  O11  1  0.30628383  0.69313030  0.92510586  1
  Pb  Pb12  1  0.97035662  0.06339537  0.25000001  1
  Pb  Pb13  1  0.52964387  0.56339471  0.25000001  1
  Pb  Pb14  1  0.47035646  0.43660397  0.75000002  1
  Pb  Pb15  1  0.02964371  0.93660512  0.75000002  1
  Zn  Zn16  1  0.50000017  0.00000000  0.00000000  1
  Zn  Zn17  1  0.00000000  0.49999934  0.00000000  1
  Zn  Zn18  1  0.50000017  0.00000000  0.50000002  1
  Zn  Zn19  1  0.00000000  0.49999934  0.50000002  1
