# generated using pymatgen
data_ZnPbO3
_symmetry_space_group_name_H-M   'P 1'
_cell_length_a   5.49941175
_cell_length_b   5.51731013
_cell_length_c   8.06080409
_cell_angle_alpha   90.00000000
_cell_angle_beta   90.00000000
_cell_angle_gamma   90.00000000
_symmetry_Int_Tables_number   1
_chemical_formula_structural   ZnPbO3
_chemical_formula_sum   'Zn4 Pb4 O12'
_cell_volume   244.58059616
_cell_formula_units_Z   4
loop_
 _symmetry_equiv_pos_site_id
 _symmetry_equiv_pos_as_xyz
  1  'x, y, z'
loop_
 _atom_site_type_symbol
 _atom_site_label
 _atom_site_symmetry_multiplicity
 _atom_site_fract_x
 _atom_site_fract_y
 _atom_site_fract_z
 _atom_site_occupancy
  O  O0  1  0.65775035  0.33758661  0.07666109  1
  O  O1  1  0.84225008  0.83758750  0.07666109  1
  O  O2  1  0.13693283  0.37664912  0.24999987  1
  O  O3  1  0.36306610  0.87664820  0.24999987  1
  O  O4  1  0.65775035  0.33758661  0.42333866  1
  O  O5  1  0.84225008  0.83758750  0.42333866  1
  O  O6  1  0.15774960  0.16241248  0.57666207  1
  O  O7  1  0.34224933  0.66241337  0.57666207  1
  O  O8  1  0.63693358  0.12335178  0.74999962  1
  O  O9  1  0.86306685  0.62335086  0.74999962  1
  O  O10  1  0.15774960  0.16241248  0.92333841  1
  O  O11  1  0.34224933  0.66241337  0.92333841  1
  Pb  Pb12  1  0.50000075  0.00000000  0.00000000  1
  Pb  Pb13  1  0.00000000  0.50000089  0.00000000  1
  Pb  Pb14  1  0.50000075  0.00000000  0.49999975  1
  Pb  Pb15  1  0.00000000  0.50000089  0.49999975  1
  Zn  Zn16  1  0.01835651  0.02456088  0.24999987  1
  Zn  Zn17  1  0.48164242  0.52456178  0.24999987  1
  Zn  Zn18  1  0.51835726  0.47543820  0.74999962  1
  Zn  Zn19  1  0.98164349  0.97543910  0.74999962  1
