# generated using pymatgen
data_CaLuO3
_symmetry_space_group_name_H-M   'P 1'
_cell_length_a   5.79801249
_cell_length_b   6.01667021
_cell_length_c   7.74576732
_cell_angle_alpha   90.00000000
_cell_angle_beta   90.00000000
_cell_angle_gamma   90.00000000
_symmetry_Int_Tables_number   1
_chemical_formula_structural   CaLuO3
_chemical_formula_sum   'Ca4 Lu4 O12'
_cell_volume   270.20899429
_cell_formula_units_Z   4
loop_
 _symmetry_equiv_pos_site_id
 _symmetry_equiv_pos_as_xyz
  1  'x, y, z'
loop_
 _atom_site_type_symbol
 _atom_site_label
 _atom_site_symmetry_multiplicity
 _atom_site_fract_x
 _atom_site_fract_y
 _atom_site_fract_z
 _atom_site_occupancy
  Ca  Ca0  1  0.98307136  0.05867365  0.24999976  1
  Ca  Ca1  1  0.51692886  0.55867446  0.24999976  1
  Ca  Ca2  1  0.48307243  0.44132550  0.75000058  1
  Ca  Ca3  1  0.01692994  0.94132631  0.75000058  1
  Lu  Lu4  1  0.49999892  0.00000000  0.00000000  1
  Lu  Lu5  1  0.00000000  0.49999915  0.00000000  1
  Lu  Lu6  1  0.49999892  0.00000000  0.50000082  1
  Lu  Lu7  1  0.00000000  0.49999915  0.50000082  1
  O  O8  1  0.70446899  0.29064249  0.08080542  1
  O  O9  1  0.79552950  0.79064330  0.08080542  1
  O  O10  1  0.14727805  0.42531997  0.24999976  1
  O  O11  1  0.35272087  0.92531912  0.24999976  1
  O  O12  1  0.70446899  0.29064249  0.41919540  1
  O  O13  1  0.79552950  0.79064330  0.41919540  1
  O  O14  1  0.20447007  0.20935833  0.58080495  1
  O  O15  1  0.29553058  0.70935748  0.58080495  1
  O  O16  1  0.64727698  0.07468084  0.75000058  1
  O  O17  1  0.85272324  0.57467999  0.75000058  1
  O  O18  1  0.20447007  0.20935833  0.91919363  1
  O  O19  1  0.29553058  0.70935748  0.91919363  1
