# generated using pymatgen
data_PuMoO3
_symmetry_space_group_name_H-M   'P 1'
_cell_length_a   5.44257355
_cell_length_b   5.87900201
_cell_length_c   7.81699377
_cell_angle_alpha   90.00000000
_cell_angle_beta   90.00000000
_cell_angle_gamma   90.00000000
_symmetry_Int_Tables_number   1
_chemical_formula_structural   PuMoO3
_chemical_formula_sum   'Pu4 Mo4 O12'
_cell_volume   250.11957463
_cell_formula_units_Z   4
loop_
 _symmetry_equiv_pos_site_id
 _symmetry_equiv_pos_as_xyz
  1  'x, y, z'
loop_
 _atom_site_type_symbol
 _atom_site_label
 _atom_site_symmetry_multiplicity
 _atom_site_fract_x
 _atom_site_fract_y
 _atom_site_fract_z
 _atom_site_occupancy
  Mo  Mo0  1  0.50000059  0.00000000  0.00000000  1
  Mo  Mo1  1  0.00000000  0.49999983  0.00000000  1
  Mo  Mo2  1  0.50000059  0.00000000  0.50000040  1
  Mo  Mo3  1  0.00000000  0.49999983  0.50000040  1
  O  O4  1  0.68973069  0.29996078  0.04882312  1
  O  O5  1  0.81026925  0.79996231  0.04882312  1
  O  O6  1  0.09712133  0.48576782  0.25000020  1
  O  O7  1  0.40287926  0.98576765  0.25000020  1
  O  O8  1  0.68973069  0.29996078  0.45117728  1
  O  O9  1  0.81026925  0.79996231  0.45117728  1
  O  O10  1  0.18973010  0.20003905  0.54882224  1
  O  O11  1  0.31026866  0.70003888  0.54882224  1
  O  O12  1  0.59712009  0.01423201  0.75000060  1
  O  O13  1  0.90287985  0.51423184  0.75000060  1
  O  O14  1  0.18973010  0.20003905  0.95117768  1
  O  O15  1  0.31026866  0.70003888  0.95117768  1
  Pu  Pu16  1  0.97662438  0.07109880  0.25000020  1
  Pu  Pu17  1  0.52337556  0.57109693  0.25000020  1
  Pu  Pu18  1  0.47662378  0.42890273  0.75000060  1
  Pu  Pu19  1  0.02337681  0.92890086  0.75000060  1
