# generated using pymatgen
data_NdIrO3
_symmetry_space_group_name_H-M   'P 1'
_cell_length_a   5.36795683
_cell_length_b   5.91823829
_cell_length_c   7.79709289
_cell_angle_alpha   90.00000000
_cell_angle_beta   90.00000000
_cell_angle_gamma   90.00000000
_symmetry_Int_Tables_number   1
_chemical_formula_structural   NdIrO3
_chemical_formula_sum   'Nd4 Ir4 O12'
_cell_volume   247.70465613
_cell_formula_units_Z   4
loop_
 _symmetry_equiv_pos_site_id
 _symmetry_equiv_pos_as_xyz
  1  'x, y, z'
loop_
 _atom_site_type_symbol
 _atom_site_label
 _atom_site_symmetry_multiplicity
 _atom_site_fract_x
 _atom_site_fract_y
 _atom_site_fract_z
 _atom_site_occupancy
  Ir  Ir0  1  0.50000030  0.00000000  0.00000000  1
  Ir  Ir1  1  0.00000000  0.50000014  0.00000000  1
  Ir  Ir2  1  0.50000030  0.00000000  0.50000046  1
  Ir  Ir3  1  0.00000000  0.50000014  0.50000046  1
  Nd  Nd4  1  0.96844296  0.08267663  0.24999959  1
  Nd  Nd5  1  0.53155793  0.58267677  0.24999959  1
  Nd  Nd6  1  0.46844266  0.41732182  0.75000004  1
  Nd  Nd7  1  0.03155763  0.91732197  0.75000004  1
  O  O8  1  0.67707698  0.30710490  0.05423688  1
  O  O9  1  0.82292391  0.80710505  0.05423688  1
  O  O10  1  0.12347342  0.45887811  0.24999959  1
  O  O11  1  0.37652687  0.95887825  0.24999959  1
  O  O12  1  0.67707698  0.30710490  0.44576229  1
  O  O13  1  0.82292391  0.80710505  0.44576229  1
  O  O14  1  0.17707669  0.19289524  0.55423734  1
  O  O15  1  0.32292361  0.69289370  0.55423734  1
  O  O16  1  0.62347372  0.04112203  0.75000004  1
  O  O17  1  0.87652531  0.54112218  0.75000004  1
  O  O18  1  0.17707669  0.19289524  0.94576275  1
  O  O19  1  0.32292361  0.69289370  0.94576275  1
