# generated using pymatgen
data_YbTlO3
_symmetry_space_group_name_H-M   'P 1'
_cell_length_a   5.60273337
_cell_length_b   5.99389285
_cell_length_c   8.03782163
_cell_angle_alpha   90.00000000
_cell_angle_beta   90.00000000
_cell_angle_gamma   90.00000000
_symmetry_Int_Tables_number   1
_chemical_formula_structural   YbTlO3
_chemical_formula_sum   'Yb4 Tl4 O12'
_cell_volume   269.92760121
_cell_formula_units_Z   4
loop_
 _symmetry_equiv_pos_site_id
 _symmetry_equiv_pos_as_xyz
  1  'x, y, z'
loop_
 _atom_site_type_symbol
 _atom_site_label
 _atom_site_symmetry_multiplicity
 _atom_site_fract_x
 _atom_site_fract_y
 _atom_site_fract_z
 _atom_site_occupancy
  O  O0  1  0.69505360  0.31004391  0.07560257  1
  O  O1  1  0.80494639  0.81004451  0.07560257  1
  O  O2  1  0.14763151  0.43199304  0.24999933  1
  O  O3  1  0.35236908  0.93199197  0.24999933  1
  O  O4  1  0.69505360  0.31004391  0.42439733  1
  O  O5  1  0.80494639  0.81004451  0.42439733  1
  O  O6  1  0.19505301  0.18995501  0.57560247  1
  O  O7  1  0.30494580  0.68995561  0.57560247  1
  O  O8  1  0.64763210  0.06800756  0.75000047  1
  O  O9  1  0.85236789  0.56800815  0.75000047  1
  O  O10  1  0.19505301  0.18995501  0.92439722  1
  O  O11  1  0.30494580  0.68995561  0.92439722  1
  Tl  Tl12  1  0.50000059  0.00000000  0.00000000  1
  Tl  Tl13  1  0.00000000  0.50000060  0.00000000  1
  Tl  Tl14  1  0.50000059  0.00000000  0.49999990  1
  Tl  Tl15  1  0.00000000  0.50000060  0.49999990  1
  Yb  Yb16  1  0.97228257  0.07689327  0.24999933  1
  Yb  Yb17  1  0.52771564  0.57689219  0.24999933  1
  Yb  Yb18  1  0.47228198  0.42310900  0.75000047  1
  Yb  Yb19  1  0.02771683  0.92310793  0.75000047  1
