# generated using pymatgen
data_LaHgO3
_symmetry_space_group_name_H-M   'P 1'
_cell_length_a   5.72954561
_cell_length_b   6.45993544
_cell_length_c   8.14032850
_cell_angle_alpha   90.00000000
_cell_angle_beta   90.00000000
_cell_angle_gamma   90.00000000
_symmetry_Int_Tables_number   1
_chemical_formula_structural   LaHgO3
_chemical_formula_sum   'La4 Hg4 O12'
_cell_volume   301.29386532
_cell_formula_units_Z   4
loop_
 _symmetry_equiv_pos_site_id
 _symmetry_equiv_pos_as_xyz
  1  'x, y, z'
loop_
 _atom_site_type_symbol
 _atom_site_label
 _atom_site_symmetry_multiplicity
 _atom_site_fract_x
 _atom_site_fract_y
 _atom_site_fract_z
 _atom_site_occupancy
  Hg  Hg0  1  0.50000126  0.00000000  0.00000000  1
  Hg  Hg1  1  0.00000000  0.50000035  0.00000000  1
  Hg  Hg2  1  0.50000126  0.00000000  0.49999948  1
  Hg  Hg3  1  0.00000000  0.50000035  0.49999948  1
  La  La4  1  0.97243663  0.08955507  0.24999974  1
  La  La5  1  0.52756365  0.58955543  0.24999974  1
  La  La6  1  0.47243537  0.41044528  0.75000045  1
  La  La7  1  0.02756240  0.91044563  0.75000045  1
  O  O8  1  0.69425052  0.33659934  0.06628602  1
  O  O9  1  0.80574802  0.83659969  0.06628602  1
  O  O10  1  0.14117175  0.44362672  0.24999974  1
  O  O11  1  0.35882950  0.94362708  0.24999974  1
  O  O12  1  0.69425052  0.33659934  0.43371468  1
  O  O13  1  0.80574802  0.83659969  0.43371468  1
  O  O14  1  0.19425101  0.16340101  0.56628550  1
  O  O15  1  0.30575025  0.66339982  0.56628550  1
  O  O16  1  0.64117301  0.05637363  0.75000045  1
  O  O17  1  0.85882901  0.55637243  0.75000045  1
  O  O18  1  0.19425101  0.16340101  0.93371416  1
  O  O19  1  0.30575025  0.66339982  0.93371416  1
