# generated using pymatgen
data_RbCoO3
_symmetry_space_group_name_H-M   'P 1'
_cell_length_a   5.53641030
_cell_length_b   5.53641030
_cell_length_c   5.53641015
_cell_angle_alpha   59.94058945
_cell_angle_beta   59.94058945
_cell_angle_gamma   59.94058416
_symmetry_Int_Tables_number   1
_chemical_formula_structural   RbCoO3
_chemical_formula_sum   'Rb2 Co2 O6'
_cell_volume   119.83513672
_cell_formula_units_Z   2
loop_
 _symmetry_equiv_pos_site_id
 _symmetry_equiv_pos_as_xyz
  1  'x, y, z'
loop_
 _atom_site_type_symbol
 _atom_site_label
 _atom_site_symmetry_multiplicity
 _atom_site_fract_x
 _atom_site_fract_y
 _atom_site_fract_z
 _atom_site_occupancy
  Co  Co0  1  0.00000000  0.00000000  0.00000000  1
  Co  Co1  1  0.49999972  0.49999972  0.49999988  1
  O  O2  1  0.75000025  0.25129082  0.24870874  1
  O  O3  1  0.74870890  0.75129051  0.24999944  1
  O  O4  1  0.24870888  0.74999992  0.25129101  1
  O  O5  1  0.75129161  0.25000058  0.74870666  1
  O  O6  1  0.25129055  0.24870894  0.75000031  1
  O  O7  1  0.24999920  0.74870863  0.75129101  1
  Rb  Rb8  1  0.25000023  0.25000023  0.25000031  1
  Rb  Rb9  1  0.74999995  0.74999995  0.75000018  1
