# generated using pymatgen
data_CuRuO3
_symmetry_space_group_name_H-M   'P 1'
_cell_length_a   5.10878911
_cell_length_b   5.12546896
_cell_length_c   7.47876911
_cell_angle_alpha   90.00000000
_cell_angle_beta   90.00000000
_cell_angle_gamma   90.00000000
_symmetry_Int_Tables_number   1
_chemical_formula_structural   CuRuO3
_chemical_formula_sum   'Cu4 Ru4 O12'
_cell_volume   195.83112076
_cell_formula_units_Z   4
loop_
 _symmetry_equiv_pos_site_id
 _symmetry_equiv_pos_as_xyz
  1  'x, y, z'
loop_
 _atom_site_type_symbol
 _atom_site_label
 _atom_site_symmetry_multiplicity
 _atom_site_fract_x
 _atom_site_fract_y
 _atom_site_fract_z
 _atom_site_occupancy
  Cu  Cu0  1  0.00260336  0.06105002  0.24999970  1
  Cu  Cu1  1  0.49739771  0.56105110  0.24999970  1
  Cu  Cu2  1  0.50260246  0.43894910  0.75000042  1
  Cu  Cu3  1  0.99739682  0.93894823  0.75000042  1
  O  O4  1  0.67451796  0.32264170  0.07122696  1
  O  O5  1  0.82548132  0.82264082  0.07122696  1
  O  O6  1  0.13640806  0.42975189  0.24999970  1
  O  O7  1  0.36359301  0.92975102  0.24999970  1
  O  O8  1  0.67451796  0.32264170  0.42877377  1
  O  O9  1  0.82548132  0.82264082  0.42877377  1
  O  O10  1  0.17451885  0.17735743  0.57122769  1
  O  O11  1  0.32548222  0.67735655  0.57122769  1
  O  O12  1  0.63640717  0.07024723  0.75000042  1
  O  O13  1  0.86359212  0.57024831  0.75000042  1
  O  O14  1  0.17451885  0.17735743  0.92877182  1
  O  O15  1  0.32548222  0.67735655  0.92877182  1
  Ru  Ru16  1  0.49999911  0.00000000  0.00000000  1
  Ru  Ru17  1  0.00000000  0.49999913  0.00000000  1
  Ru  Ru18  1  0.49999911  0.00000000  0.50000073  1
  Ru  Ru19  1  0.00000000  0.49999913  0.50000073  1
