# generated using pymatgen
data_SrLaO3
_symmetry_space_group_name_H-M   'P 1'
_cell_length_a   6.10834642
_cell_length_b   6.34821524
_cell_length_c   8.79847243
_cell_angle_alpha   90.00000000
_cell_angle_beta   90.00000000
_cell_angle_gamma   90.00000000
_symmetry_Int_Tables_number   1
_chemical_formula_structural   SrLaO3
_chemical_formula_sum   'Sr4 La4 O12'
_cell_volume   341.17922667
_cell_formula_units_Z   4
loop_
 _symmetry_equiv_pos_site_id
 _symmetry_equiv_pos_as_xyz
  1  'x, y, z'
loop_
 _atom_site_type_symbol
 _atom_site_label
 _atom_site_symmetry_multiplicity
 _atom_site_fract_x
 _atom_site_fract_y
 _atom_site_fract_z
 _atom_site_occupancy
  La  La0  1  0.49999947  0.00000000  0.00000000  1
  La  La1  1  0.00000000  0.50000037  0.00000000  1
  La  La2  1  0.49999947  0.00000000  0.50000043  1
  La  La3  1  0.00000000  0.50000037  0.50000043  1
  O  O4  1  0.69346755  0.30643731  0.06529884  1
  O  O5  1  0.80653251  0.80643611  0.06529884  1
  O  O6  1  0.12486849  0.43827436  0.24999908  1
  O  O7  1  0.37513098  0.93827474  0.24999908  1
  O  O8  1  0.69346755  0.30643731  0.43470160  1
  O  O9  1  0.80653251  0.80643611  0.43470160  1
  O  O10  1  0.19346807  0.19356307  0.56529927  1
  O  O11  1  0.30653304  0.69356186  0.56529927  1
  O  O12  1  0.62486797  0.06172759  0.74999951  1
  O  O13  1  0.87513209  0.56172638  0.74999951  1
  O  O14  1  0.19346807  0.19356307  0.93470089  1
  O  O15  1  0.30653304  0.69356186  0.93470089  1
  Sr  Sr16  1  0.98462163  0.05465946  0.24999908  1
  Sr  Sr17  1  0.51537843  0.55465983  0.24999908  1
  Sr  Sr18  1  0.48462215  0.44534092  0.74999951  1
  Sr  Sr19  1  0.01537896  0.94533972  0.74999951  1
