# generated using pymatgen
data_BaSbO3
_symmetry_space_group_name_H-M   'P 1'
_cell_length_a   6.00258010
_cell_length_b   6.00331304
_cell_length_c   8.48445790
_cell_angle_alpha   90.00000000
_cell_angle_beta   90.00000000
_cell_angle_gamma   90.00008725
_symmetry_Int_Tables_number   1
_chemical_formula_structural   BaSbO3
_chemical_formula_sum   'Ba4 Sb4 O12'
_cell_volume   305.74055783
_cell_formula_units_Z   4
loop_
 _symmetry_equiv_pos_site_id
 _symmetry_equiv_pos_as_xyz
  1  'x, y, z'
loop_
 _atom_site_type_symbol
 _atom_site_label
 _atom_site_symmetry_multiplicity
 _atom_site_fract_x
 _atom_site_fract_y
 _atom_site_fract_z
 _atom_site_occupancy
  Ba  Ba0  1  0.50005368  0.49967281  0.25000065  1
  Ba  Ba1  1  0.00000000  0.99967301  0.25000065  1
  Ba  Ba2  1  0.00000000  0.00032649  0.75000077  1
  Ba  Ba3  1  0.49994540  0.50032745  0.75000077  1
  O  O4  1  0.24953289  0.24956072  0.00229478  1
  O  O5  1  0.25046787  0.74956130  0.00229478  1
  O  O6  1  0.50425483  0.00094486  0.25000065  1
  O  O7  1  0.99574386  0.50094582  0.25000065  1
  O  O8  1  0.24953289  0.24956072  0.49770534  1
  O  O9  1  0.25046787  0.74956130  0.49770534  1
  O  O10  1  0.74953288  0.25043895  0.50229491  1
  O  O11  1  0.75046619  0.75043953  0.50229491  1
  O  O12  1  0.00425522  0.49905444  0.75000077  1
  O  O13  1  0.49574592  0.99905539  0.75000077  1
  O  O14  1  0.74953288  0.25043895  0.99770546  1
  O  O15  1  0.75046619  0.75043953  0.99770546  1
  Sb  Sb16  1  0.49999999  0.00000000  0.00000000  1
  Sb  Sb17  1  0.00000000  0.50000058  0.00000000  1
  Sb  Sb18  1  0.49999999  0.00000000  0.50000012  1
  Sb  Sb19  1  0.00000000  0.50000058  0.50000012  1
