# generated using pymatgen
data_PaBiO3
_symmetry_space_group_name_H-M   'P 1'
_cell_length_a   6.19357018
_cell_length_b   6.21797999
_cell_length_c   8.69776322
_cell_angle_alpha   90.00000000
_cell_angle_beta   90.00000000
_cell_angle_gamma   90.00000000
_symmetry_Int_Tables_number   1
_chemical_formula_structural   PaBiO3
_chemical_formula_sum   'Pa4 Bi4 O12'
_cell_volume   334.96386854
_cell_formula_units_Z   4
loop_
 _symmetry_equiv_pos_site_id
 _symmetry_equiv_pos_as_xyz
  1  'x, y, z'
loop_
 _atom_site_type_symbol
 _atom_site_label
 _atom_site_symmetry_multiplicity
 _atom_site_fract_x
 _atom_site_fract_y
 _atom_site_fract_z
 _atom_site_occupancy
  Bi  Bi0  1  0.50285052  0.48406717  0.24999991  1
  Bi  Bi1  1  0.99715024  0.98406717  0.24999991  1
  Bi  Bi2  1  0.00284973  0.01593283  0.74999972  1
  Bi  Bi3  1  0.49714945  0.51593122  0.74999972  1
  O  O4  1  0.66737276  0.33388335  0.03059407  1
  O  O5  1  0.83262639  0.83388335  0.03059407  1
  O  O6  1  0.09270582  0.47291243  0.24999991  1
  O  O7  1  0.40729336  0.97291082  0.24999991  1
  O  O8  1  0.66737276  0.33388335  0.46940574  1
  O  O9  1  0.83262639  0.83388335  0.46940574  1
  O  O10  1  0.16737196  0.16611665  0.53059389  1
  O  O11  1  0.33262722  0.66611665  0.53059389  1
  O  O12  1  0.59270500  0.02708918  0.74999972  1
  O  O13  1  0.90729577  0.52708918  0.74999972  1
  O  O14  1  0.16737196  0.16611665  0.96940556  1
  O  O15  1  0.33262722  0.66611665  0.96940556  1
  Pa  Pa16  1  0.49999918  0.00000000  0.00000000  1
  Pa  Pa17  1  0.00000000  0.50000000  0.00000000  1
  Pa  Pa18  1  0.49999918  0.00000000  0.50000096  1
  Pa  Pa19  1  0.00000000  0.50000000  0.50000096  1
