# generated using pymatgen
data_LiMnO3
_symmetry_space_group_name_H-M   'P 1'
_cell_length_a   4.90085854
_cell_length_b   5.11521402
_cell_length_c   6.87389238
_cell_angle_alpha   90.00000000
_cell_angle_beta   90.00000000
_cell_angle_gamma   90.00000000
_symmetry_Int_Tables_number   1
_chemical_formula_structural   LiMnO3
_chemical_formula_sum   'Li4 Mn4 O12'
_cell_volume   172.32119759
_cell_formula_units_Z   4
loop_
 _symmetry_equiv_pos_site_id
 _symmetry_equiv_pos_as_xyz
  1  'x, y, z'
loop_
 _atom_site_type_symbol
 _atom_site_label
 _atom_site_symmetry_multiplicity
 _atom_site_fract_x
 _atom_site_fract_y
 _atom_site_fract_z
 _atom_site_occupancy
  Li  Li0  1  0.99054685  0.06927765  0.24999955  1
  Li  Li1  1  0.50945360  0.56927823  0.24999955  1
  Li  Li2  1  0.49054670  0.43072294  0.75000010  1
  Li  Li3  1  0.00945345  0.93072352  0.75000010  1
  Mn  Mn4  1  0.50000015  0.00000000  0.00000000  1
  Mn  Mn5  1  0.00000000  0.50000058  0.00000000  1
  Mn  Mn6  1  0.50000015  0.00000000  0.50000055  1
  Mn  Mn7  1  0.00000000  0.50000058  0.50000055  1
  O  O8  1  0.68009717  0.31220786  0.07736374  1
  O  O9  1  0.81990328  0.81220649  0.07736374  1
  O  O10  1  0.14324429  0.44782877  0.24999955  1
  O  O11  1  0.35675586  0.94782935  0.24999955  1
  O  O12  1  0.68009717  0.31220786  0.42263682  1
  O  O13  1  0.81990328  0.81220649  0.42263682  1
  O  O14  1  0.18009702  0.18779273  0.57736284  1
  O  O15  1  0.31990313  0.68779331  0.57736284  1
  O  O16  1  0.64324444  0.05217182  0.75000010  1
  O  O17  1  0.85675601  0.55217044  0.75000010  1
  O  O18  1  0.18009702  0.18779273  0.92263737  1
  O  O19  1  0.31990313  0.68779331  0.92263737  1
