# generated using pymatgen
data_KPrO3
_symmetry_space_group_name_H-M   'P 1'
_cell_length_a   6.40883947
_cell_length_b   6.43060062
_cell_length_c   9.00869188
_cell_angle_alpha   90.00000000
_cell_angle_beta   90.00000000
_cell_angle_gamma   90.00000000
_symmetry_Int_Tables_number   1
_chemical_formula_structural   KPrO3
_chemical_formula_sum   'K4 Pr4 O12'
_cell_volume   371.27239896
_cell_formula_units_Z   4
loop_
 _symmetry_equiv_pos_site_id
 _symmetry_equiv_pos_as_xyz
  1  'x, y, z'
loop_
 _atom_site_type_symbol
 _atom_site_label
 _atom_site_symmetry_multiplicity
 _atom_site_fract_x
 _atom_site_fract_y
 _atom_site_fract_z
 _atom_site_occupancy
  K  K0  1  0.99548132  0.02761795  0.24999967  1
  K  K1  1  0.50451724  0.52761790  0.24999967  1
  K  K2  1  0.49548128  0.47238200  0.75000012  1
  K  K3  1  0.00451720  0.97238351  0.75000012  1
  O  O4  1  0.71115528  0.28579601  0.04023448  1
  O  O5  1  0.78884485  0.78579596  0.04023448  1
  O  O6  1  0.08005818  0.46540443  0.24999967  1
  O  O7  1  0.41994187  0.96540438  0.24999967  1
  O  O8  1  0.71115528  0.28579601  0.45976597  1
  O  O9  1  0.78884485  0.78579596  0.45976597  1
  O  O10  1  0.21115367  0.21420394  0.54023382  1
  O  O11  1  0.28884637  0.71420389  0.54023382  1
  O  O12  1  0.58005666  0.03459552  0.75000012  1
  O  O13  1  0.91994347  0.53459392  0.75000012  1
  O  O14  1  0.21115367  0.21420394  0.95976532  1
  O  O15  1  0.28884637  0.71420389  0.95976532  1
  Pr  Pr16  1  0.50000004  0.00000000  0.00000000  1
  Pr  Pr17  1  0.00000000  0.49999995  0.00000000  1
  Pr  Pr18  1  0.50000004  0.00000000  0.49999934  1
  Pr  Pr19  1  0.00000000  0.49999995  0.49999934  1
