# generated using pymatgen
data_CsPuO3
_symmetry_space_group_name_H-M   'P 1'
_cell_length_a   6.22607446
_cell_length_b   6.22607446
_cell_length_c   6.22607416
_cell_angle_alpha   59.60074109
_cell_angle_beta   59.60074109
_cell_angle_gamma   59.60075848
_symmetry_Int_Tables_number   1
_chemical_formula_structural   CsPuO3
_chemical_formula_sum   'Cs2 Pu2 O6'
_cell_volume   169.10985177
_cell_formula_units_Z   2
loop_
 _symmetry_equiv_pos_site_id
 _symmetry_equiv_pos_as_xyz
  1  'x, y, z'
loop_
 _atom_site_type_symbol
 _atom_site_label
 _atom_site_symmetry_multiplicity
 _atom_site_fract_x
 _atom_site_fract_y
 _atom_site_fract_z
 _atom_site_occupancy
  Cs  Cs0  1  0.25000002  0.25000002  0.24999995  1
  Cs  Cs1  1  0.75000006  0.75000006  0.74999985  1
  O  O2  1  0.75000024  0.25145983  0.24854057  1
  O  O3  1  0.74853466  0.75146269  0.25000001  1
  O  O4  1  0.24853967  0.74999841  0.25146256  1
  O  O5  1  0.75145976  0.25000102  0.74853658  1
  O  O6  1  0.25146477  0.24853674  0.74999913  1
  O  O7  1  0.24999826  0.74853867  0.75146044  1
  Pu  Pu8  1  0.00000000  0.00000000  0.00000000  1
  Pu  Pu9  1  0.50000069  0.50000069  0.50000055  1
