# generated using pymatgen
data_CaRhO3
_symmetry_space_group_name_H-M   'P 1'
_cell_length_a   5.40601700
_cell_length_b   5.65445900
_cell_length_c   7.72661700
_cell_angle_alpha   90.00000000
_cell_angle_beta   90.00000000
_cell_angle_gamma   90.00000000
_symmetry_Int_Tables_number   1
_chemical_formula_structural   CaRhO3
_chemical_formula_sum   'Ca4 Rh4 O12'
_cell_volume   236.18801255
_cell_formula_units_Z   4
loop_
 _symmetry_equiv_pos_site_id
 _symmetry_equiv_pos_as_xyz
  1  'x, y, z'
loop_
 _atom_site_type_symbol
 _atom_site_label
 _atom_site_symmetry_multiplicity
 _atom_site_fract_x
 _atom_site_fract_y
 _atom_site_fract_z
 _atom_site_occupancy
  Ca  Ca0  1  0.51801000  0.56459400  0.25000000  1
  Ca  Ca1  1  0.98199000  0.06459400  0.25000000  1
  Ca  Ca2  1  0.48199000  0.43540600  0.75000000  1
  Ca  Ca3  1  0.01801000  0.93540600  0.75000000  1
  Rh  Rh4  1  0.50000000  0.00000000  0.00000000  1
  Rh  Rh5  1  0.00000000  0.50000000  0.50000000  1
  Rh  Rh6  1  0.50000000  0.00000000  0.50000000  1
  Rh  Rh7  1  0.00000000  0.50000000  0.00000000  1
  O  O8  1  0.39265600  0.96300800  0.25000000  1
  O  O9  1  0.10734400  0.46300800  0.25000000  1
  O  O10  1  0.60734400  0.03699200  0.75000000  1
  O  O11  1  0.89265600  0.53699200  0.75000000  1
  O  O12  1  0.80632600  0.80173600  0.05485500  1
  O  O13  1  0.69367400  0.30173600  0.44514500  1
  O  O14  1  0.19367400  0.19826400  0.55485500  1
  O  O15  1  0.30632600  0.69826400  0.94514500  1
  O  O16  1  0.19367400  0.19826400  0.94514500  1
  O  O17  1  0.30632600  0.69826400  0.55485500  1
  O  O18  1  0.80632600  0.80173600  0.44514500  1
  O  O19  1  0.69367400  0.30173600  0.05485500  1
