# generated using pymatgen
data_HgAuO3
_symmetry_space_group_name_H-M   'P 1'
_cell_length_a   5.58047933
_cell_length_b   5.69102779
_cell_length_c   8.07456273
_cell_angle_alpha   90.00000000
_cell_angle_beta   90.00000000
_cell_angle_gamma   90.00000000
_symmetry_Int_Tables_number   1
_chemical_formula_structural   HgAuO3
_chemical_formula_sum   'Hg4 Au4 O12'
_cell_volume   256.43731601
_cell_formula_units_Z   4
loop_
 _symmetry_equiv_pos_site_id
 _symmetry_equiv_pos_as_xyz
  1  'x, y, z'
loop_
 _atom_site_type_symbol
 _atom_site_label
 _atom_site_symmetry_multiplicity
 _atom_site_fract_x
 _atom_site_fract_y
 _atom_site_fract_z
 _atom_site_occupancy
  Au  Au0  1  0.50000006  0.00000000  0.00000000  1
  Au  Au1  1  0.00000000  0.49999932  0.00000000  1
  Au  Au2  1  0.50000006  0.00000000  0.49999983  1
  Au  Au3  1  0.00000000  0.49999932  0.49999983  1
  Hg  Hg4  1  0.98945264  0.04218219  0.24999992  1
  Hg  Hg5  1  0.51054754  0.54218150  0.24999992  1
  Hg  Hg6  1  0.48945258  0.45781889  0.74999975  1
  Hg  Hg7  1  0.01054748  0.95781820  0.74999975  1
  O  O8  1  0.70063157  0.29700786  0.06617324  1
  O  O9  1  0.79936682  0.79700894  0.06617324  1
  O  O10  1  0.11071630  0.43744998  0.24999992  1
  O  O11  1  0.38928376  0.93744930  0.24999992  1
  O  O12  1  0.70063157  0.29700786  0.43382659  1
  O  O13  1  0.79936682  0.79700894  0.43382659  1
  O  O14  1  0.20063151  0.20299145  0.56617307  1
  O  O15  1  0.29936676  0.70299077  0.56617307  1
  O  O16  1  0.61071636  0.06254933  0.74999975  1
  O  O17  1  0.88928382  0.56255041  0.74999975  1
  O  O18  1  0.20063151  0.20299145  0.93382642  1
  O  O19  1  0.29936676  0.70299077  0.93382642  1
