# generated using pymatgen
data_HgAuO3
_symmetry_space_group_name_H-M   'P 1'
_cell_length_a   3.98321079
_cell_length_b   3.98321079
_cell_length_c   4.26066286
_cell_angle_alpha   90.00000000
_cell_angle_beta   90.00000000
_cell_angle_gamma   90.00000000
_symmetry_Int_Tables_number   1
_chemical_formula_structural   HgAuO3
_chemical_formula_sum   'Hg1 Au1 O3'
_cell_volume   67.59954146
_cell_formula_units_Z   1
loop_
 _symmetry_equiv_pos_site_id
 _symmetry_equiv_pos_as_xyz
  1  'x, y, z'
loop_
 _atom_site_type_symbol
 _atom_site_label
 _atom_site_symmetry_multiplicity
 _atom_site_fract_x
 _atom_site_fract_y
 _atom_site_fract_z
 _atom_site_occupancy
  Au  Au0  1  0.50000116  0.50000116  0.55310877  1
  Hg  Hg1  1  0.00000000  0.00000000  0.98995931  1
  O  O2  1  0.50000116  0.50000116  0.06739092  1
  O  O3  1  0.50000116  0.00000000  0.64477057  1
  O  O4  1  0.00000000  0.50000116  0.64477057  1
