# generated using pymatgen
data_NaAuO3
_symmetry_space_group_name_H-M   'P 1'
_cell_length_a   5.35658536
_cell_length_b   5.58860457
_cell_length_c   7.64926689
_cell_angle_alpha   90.00000000
_cell_angle_beta   90.00000000
_cell_angle_gamma   90.00000000
_symmetry_Int_Tables_number   1
_chemical_formula_structural   NaAuO3
_chemical_formula_sum   'Na4 Au4 O12'
_cell_volume   228.98721019
_cell_formula_units_Z   4
loop_
 _symmetry_equiv_pos_site_id
 _symmetry_equiv_pos_as_xyz
  1  'x, y, z'
loop_
 _atom_site_type_symbol
 _atom_site_label
 _atom_site_symmetry_multiplicity
 _atom_site_fract_x
 _atom_site_fract_y
 _atom_site_fract_z
 _atom_site_occupancy
  Au  Au0  1  0.49999950  0.00000000  0.00000000  1
  Au  Au1  1  0.00000000  0.49999959  0.00000000  1
  Au  Au2  1  0.49999950  0.00000000  0.50000086  1
  Au  Au3  1  0.00000000  0.49999959  0.50000086  1
  Na  Na4  1  0.97872238  0.07044156  0.24999912  1
  Na  Na5  1  0.52127798  0.57044294  0.24999912  1
  Na  Na6  1  0.47872289  0.42955804  0.74999998  1
  Na  Na7  1  0.02127661  0.92955763  0.74999998  1
  O  O8  1  0.68776277  0.30508331  0.06611222  1
  O  O9  1  0.81223759  0.80508290  0.06611222  1
  O  O10  1  0.12711456  0.45010699  0.24999912  1
  O  O11  1  0.37288680  0.95010658  0.24999912  1
  O  O12  1  0.68776277  0.30508331  0.43388602  1
  O  O13  1  0.81223759  0.80508290  0.43388602  1
  O  O14  1  0.18776327  0.19491628  0.56611308  1
  O  O15  1  0.31223623  0.69491766  0.56611308  1
  O  O16  1  0.62711406  0.04989260  0.74999998  1
  O  O17  1  0.87288630  0.54989398  0.74999998  1
  O  O18  1  0.18776327  0.19491628  0.93388688  1
  O  O19  1  0.31223623  0.69491766  0.93388688  1
