# generated using pymatgen
data_RbEuBr3
_symmetry_space_group_name_H-M   'P 1'
_cell_length_a   8.24008548
_cell_length_b   11.50539617
_cell_length_c   7.91435815
_cell_angle_alpha   90.00000000
_cell_angle_beta   90.00000000
_cell_angle_gamma   90.00000000
_symmetry_Int_Tables_number   1
_chemical_formula_structural   RbEuBr3
_chemical_formula_sum   'Rb4 Eu4 Br12'
_cell_volume   750.32426966
_cell_formula_units_Z   4
loop_
 _symmetry_equiv_pos_site_id
 _symmetry_equiv_pos_as_xyz
  1  'x, y, z'
loop_
 _atom_site_type_symbol
 _atom_site_label
 _atom_site_symmetry_multiplicity
 _atom_site_fract_x
 _atom_site_fract_y
 _atom_site_fract_z
 _atom_site_occupancy
  Br  Br0  1  0.52295138  0.25000000  0.08581612  1
  Br  Br1  1  0.80475307  0.54419508  0.19121065  1
  Br  Br2  1  0.80475307  0.95580492  0.19121065  1
  Br  Br3  1  0.30475307  0.54419508  0.30878935  1
  Br  Br4  1  0.30475307  0.95580492  0.30878935  1
  Br  Br5  1  0.02295138  0.25000000  0.41418388  1
  Br  Br6  1  0.97704862  0.75000000  0.58581612  1
  Br  Br7  1  0.69524693  0.04419508  0.69121065  1
  Br  Br8  1  0.69524693  0.45580492  0.69121065  1
  Br  Br9  1  0.19524693  0.04419508  0.80878935  1
  Br  Br10  1  0.19524693  0.45580492  0.80878935  1
  Br  Br11  1  0.47704862  0.75000000  0.91418388  1
  Eu  Eu12  1  0.50000000  0.00000000  0.00000000  1
  Eu  Eu13  1  0.50000000  0.50000000  0.00000000  1
  Eu  Eu14  1  0.00000000  0.00000000  0.50000000  1
  Eu  Eu15  1  0.00000000  0.50000000  0.50000000  1
  Rb  Rb16  1  0.06504770  0.75000000  0.01751368  1
  Rb  Rb17  1  0.56504770  0.75000000  0.48248632  1
  Rb  Rb18  1  0.43495230  0.25000000  0.51751368  1
  Rb  Rb19  1  0.93495230  0.25000000  0.98248632  1
