# generated using pymatgen
data_DySiO3
_symmetry_space_group_name_H-M   'P 1'
_cell_length_a   4.26908200
_cell_length_b   4.26908200
_cell_length_c   4.26908200
_cell_angle_alpha   90.00000000
_cell_angle_beta   90.00000000
_cell_angle_gamma   90.00000000
_symmetry_Int_Tables_number   1
_chemical_formula_structural   DySiO3
_chemical_formula_sum   'Dy1 Si1 O3'
_cell_volume   77.80428039
_cell_formula_units_Z   1
loop_
 _symmetry_equiv_pos_site_id
 _symmetry_equiv_pos_as_xyz
  1  'x, y, z'
loop_
 _atom_site_type_symbol
 _atom_site_label
 _atom_site_symmetry_multiplicity
 _atom_site_fract_x
 _atom_site_fract_y
 _atom_site_fract_z
 _atom_site_occupancy
  Dy  Dy0  1  0.49999977  0.49999977  0.49999977  1
  O  O1  1  0.49999977  0.49999977  0.00000000  1
  O  O2  1  0.49999977  0.00000000  0.49999977  1
  O  O3  1  0.00000000  0.49999977  0.49999977  1
  Si  Si4  1  0.00000000  0.00000000  0.00000000  1
