# generated using pymatgen
data_DySiO3
_symmetry_space_group_name_H-M   'P 1'
_cell_length_a   5.18500755
_cell_length_b   5.18500755
_cell_length_c   5.18500827
_cell_angle_alpha   60.12546114
_cell_angle_beta   60.12546114
_cell_angle_gamma   60.12547221
_symmetry_Int_Tables_number   1
_chemical_formula_structural   DySiO3
_chemical_formula_sum   'Dy2 Si2 O6'
_cell_volume   98.84754915
_cell_formula_units_Z   2
loop_
 _symmetry_equiv_pos_site_id
 _symmetry_equiv_pos_as_xyz
  1  'x, y, z'
loop_
 _atom_site_type_symbol
 _atom_site_label
 _atom_site_symmetry_multiplicity
 _atom_site_fract_x
 _atom_site_fract_y
 _atom_site_fract_z
 _atom_site_occupancy
  Dy  Dy0  1  0.24999994  0.24999994  0.24999969  1
  Dy  Dy1  1  0.74999982  0.74999982  0.74999906  1
  O  O2  1  0.74999845  0.25066814  0.24933268  1
  O  O3  1  0.74933104  0.75067083  0.24999712  1
  O  O4  1  0.24932919  0.74999929  0.25067079  1
  O  O5  1  0.75066946  0.24999936  0.74933017  1
  O  O6  1  0.25066872  0.24932893  0.75000163  1
  O  O7  1  0.25000131  0.74933161  0.75066607  1
  Si  Si8  1  0.00000000  0.00000000  0.00000000  1
  Si  Si9  1  0.49999988  0.49999988  0.49999937  1
