# generated using pymatgen
data_LaVO3
_symmetry_space_group_name_H-M   'P 1'
_cell_length_a   5.59749800
_cell_length_b   5.60132000
_cell_length_c   8.05551100
_cell_angle_alpha   90.00000000
_cell_angle_beta   90.00000000
_cell_angle_gamma   90.00000000
_symmetry_Int_Tables_number   1
_chemical_formula_structural   LaVO3
_chemical_formula_sum   'La4 V4 O12'
_cell_volume   252.56747732
_cell_formula_units_Z   4
loop_
 _symmetry_equiv_pos_site_id
 _symmetry_equiv_pos_as_xyz
  1  'x, y, z'
loop_
 _atom_site_type_symbol
 _atom_site_label
 _atom_site_symmetry_multiplicity
 _atom_site_fract_x
 _atom_site_fract_y
 _atom_site_fract_z
 _atom_site_occupancy
  La  La0  1  0.03922000  0.99459200  0.75000000  1
  La  La1  1  0.46078000  0.49459200  0.25000000  1
  La  La2  1  0.53922000  0.50540800  0.75000000  1
  La  La3  1  0.96078000  0.00540800  0.25000000  1
  V  V4  1  0.00000000  0.50000000  0.50000000  1
  V  V5  1  0.50000000  0.00000000  0.50000000  1
  V  V6  1  0.50000000  0.00000000  0.00000000  1
  V  V7  1  0.00000000  0.50000000  0.00000000  1
  O  O8  1  0.78893700  0.78695900  0.95371900  1
  O  O9  1  0.71106300  0.28695900  0.04628100  1
  O  O10  1  0.28893700  0.71304100  0.54628100  1
  O  O11  1  0.21106300  0.21304100  0.45371900  1
  O  O12  1  0.21106300  0.21304100  0.04628100  1
  O  O13  1  0.28893700  0.71304100  0.95371900  1
  O  O14  1  0.71106300  0.28695900  0.45371900  1
  O  O15  1  0.78893700  0.78695900  0.54628100  1
  O  O16  1  0.52132900  0.91469400  0.25000000  1
  O  O17  1  0.97867100  0.41469400  0.75000000  1
  O  O18  1  0.02132900  0.58530600  0.25000000  1
  O  O19  1  0.47867100  0.08530600  0.75000000  1
