# generated using pymatgen
data_MnNbO3
_symmetry_space_group_name_H-M   'P 1'
_cell_length_a   5.31072956
_cell_length_b   5.55587642
_cell_length_c   7.70454296
_cell_angle_alpha   90.00000000
_cell_angle_beta   90.00000000
_cell_angle_gamma   90.00000000
_symmetry_Int_Tables_number   1
_chemical_formula_structural   MnNbO3
_chemical_formula_sum   'Mn4 Nb4 O12'
_cell_volume   227.32837348
_cell_formula_units_Z   4
loop_
 _symmetry_equiv_pos_site_id
 _symmetry_equiv_pos_as_xyz
  1  'x, y, z'
loop_
 _atom_site_type_symbol
 _atom_site_label
 _atom_site_symmetry_multiplicity
 _atom_site_fract_x
 _atom_site_fract_y
 _atom_site_fract_z
 _atom_site_occupancy
  Mn  Mn0  1  0.98408701  0.05848402  0.25000055  1
  Mn  Mn1  1  0.51591217  0.55848254  0.25000055  1
  Mn  Mn2  1  0.48408791  0.44151810  0.75000166  1
  Mn  Mn3  1  0.01591118  0.94151662  0.75000166  1
  Nb  Nb4  1  0.50000098  0.00000000  0.00000000  1
  Nb  Nb5  1  0.00000000  0.50000032  0.00000000  1
  Nb  Nb6  1  0.50000098  0.00000000  0.49999981  1
  Nb  Nb7  1  0.00000000  0.50000032  0.49999981  1
  O  O8  1  0.68051290  0.30992230  0.06534456  1
  O  O9  1  0.81948816  0.80992262  0.06534456  1
  O  O10  1  0.13451448  0.43959761  0.25000055  1
  O  O11  1  0.36548651  0.93959793  0.25000055  1
  O  O12  1  0.68051290  0.30992230  0.43465524  1
  O  O13  1  0.81948816  0.80992262  0.43465524  1
  O  O14  1  0.18051192  0.19007982  0.56534437  1
  O  O15  1  0.31948906  0.69007834  0.56534437  1
  O  O16  1  0.63451169  0.06040091  0.75000166  1
  O  O17  1  0.86548749  0.56040123  0.75000166  1
  O  O18  1  0.18051192  0.19007982  0.93465505  1
  O  O19  1  0.31948906  0.69007834  0.93465505  1
