# generated using pymatgen
data_CeSiO3
_symmetry_space_group_name_H-M   'P 1'
_cell_length_a   5.35836900
_cell_length_b   5.35836900
_cell_length_c   5.35836946
_cell_angle_alpha   60.07510127
_cell_angle_beta   60.07510127
_cell_angle_gamma   60.07512050
_symmetry_Int_Tables_number   1
_chemical_formula_structural   CeSiO3
_chemical_formula_sum   'Ce2 Si2 O6'
_cell_volume   108.97364157
_cell_formula_units_Z   2
loop_
 _symmetry_equiv_pos_site_id
 _symmetry_equiv_pos_as_xyz
  1  'x, y, z'
loop_
 _atom_site_type_symbol
 _atom_site_label
 _atom_site_symmetry_multiplicity
 _atom_site_fract_x
 _atom_site_fract_y
 _atom_site_fract_z
 _atom_site_occupancy
  Ce  Ce0  1  0.24999980  0.24999980  0.24999955  1
  Ce  Ce1  1  0.74999939  0.74999939  0.74999864  1
  O  O2  1  0.74999863  0.25077522  0.24922471  1
  O  O3  1  0.74922289  0.75077757  0.24999752  1
  O  O4  1  0.24922377  0.74999813  0.25077666  1
  O  O5  1  0.75077541  0.25000105  0.74922152  1
  O  O6  1  0.25077629  0.24922161  0.75000067  1
  O  O7  1  0.25000055  0.74922396  0.75077348  1
  Si  Si8  1  0.00000000  0.00000000  0.00000000  1
  Si  Si9  1  0.49999959  0.49999959  0.49999909  1
