# generated using pymatgen
data_UInO3
_symmetry_space_group_name_H-M   'P 1'
_cell_length_a   4.36991909
_cell_length_b   4.36991909
_cell_length_c   4.33478082
_cell_angle_alpha   90.00000000
_cell_angle_beta   90.00000000
_cell_angle_gamma   90.00000000
_symmetry_Int_Tables_number   1
_chemical_formula_structural   UInO3
_chemical_formula_sum   'U1 In1 O3'
_cell_volume   82.77781038
_cell_formula_units_Z   1
loop_
 _symmetry_equiv_pos_site_id
 _symmetry_equiv_pos_as_xyz
  1  'x, y, z'
loop_
 _atom_site_type_symbol
 _atom_site_label
 _atom_site_symmetry_multiplicity
 _atom_site_fract_x
 _atom_site_fract_y
 _atom_site_fract_z
 _atom_site_occupancy
  In  In0  1  0.00000000  0.00000000  0.25305547  1
  O  O1  1  0.50000010  0.50000010  0.28134987  1
  O  O2  1  0.50000010  0.00000000  0.79287746  1
  O  O3  1  0.00000000  0.50000010  0.79287746  1
  U  U4  1  0.50000010  0.50000010  0.77984104  1
