# generated using pymatgen
data_UInO3
_symmetry_space_group_name_H-M   'P 1'
_cell_length_a   5.86034027
_cell_length_b   6.14679521
_cell_length_c   8.55051518
_cell_angle_alpha   90.00000000
_cell_angle_beta   90.00000000
_cell_angle_gamma   90.00000000
_symmetry_Int_Tables_number   1
_chemical_formula_structural   UInO3
_chemical_formula_sum   'U4 In4 O12'
_cell_volume   308.00932142
_cell_formula_units_Z   4
loop_
 _symmetry_equiv_pos_site_id
 _symmetry_equiv_pos_as_xyz
  1  'x, y, z'
loop_
 _atom_site_type_symbol
 _atom_site_label
 _atom_site_symmetry_multiplicity
 _atom_site_fract_x
 _atom_site_fract_y
 _atom_site_fract_z
 _atom_site_occupancy
  In  In0  1  0.99071380  0.03703719  0.25000014  1
  In  In1  1  0.50928613  0.53703920  0.25000014  1
  In  In2  1  0.49071383  0.46296158  0.75000042  1
  In  In3  1  0.00928786  0.96296197  0.75000042  1
  O  O4  1  0.67172550  0.32310333  0.06556330  1
  O  O5  1  0.82827443  0.82310209  0.06556330  1
  O  O6  1  0.14389949  0.45000198  0.25000014  1
  O  O7  1  0.35610048  0.95000237  0.25000014  1
  O  O8  1  0.67172550  0.32310333  0.43443698  1
  O  O9  1  0.82827443  0.82310209  0.43443698  1
  O  O10  1  0.17172552  0.17689706  0.56556241  1
  O  O11  1  0.32827445  0.67689745  0.56556241  1
  O  O12  1  0.64390118  0.04999841  0.75000042  1
  O  O13  1  0.85610046  0.54999880  0.75000042  1
  O  O14  1  0.17172552  0.17689706  0.93443726  1
  O  O15  1  0.32827445  0.67689745  0.93443726  1
  U  U16  1  0.49999998  0.00000000  0.00000000  1
  U  U17  1  0.00000000  0.49999876  0.00000000  1
  U  U18  1  0.49999998  0.00000000  0.49999911  1
  U  U19  1  0.00000000  0.49999876  0.49999911  1
