# generated using pymatgen
data_ScUO3
_symmetry_space_group_name_H-M   'P 1'
_cell_length_a   4.00909287
_cell_length_b   4.00909287
_cell_length_c   4.24230870
_cell_angle_alpha   90.00000000
_cell_angle_beta   90.00000000
_cell_angle_gamma   90.00000000
_symmetry_Int_Tables_number   1
_chemical_formula_structural   ScUO3
_chemical_formula_sum   'Sc1 U1 O3'
_cell_volume   68.18588788
_cell_formula_units_Z   1
loop_
 _symmetry_equiv_pos_site_id
 _symmetry_equiv_pos_as_xyz
  1  'x, y, z'
loop_
 _atom_site_type_symbol
 _atom_site_label
 _atom_site_symmetry_multiplicity
 _atom_site_fract_x
 _atom_site_fract_y
 _atom_site_fract_z
 _atom_site_occupancy
  O  O0  1  0.50000089  0.50000089  0.08474867  1
  O  O1  1  0.50000089  0.00000000  0.64010193  1
  O  O2  1  0.00000000  0.50000089  0.64010193  1
  Sc  Sc3  1  0.50000089  0.50000089  0.55108437  1
  U  U4  1  0.00000000  0.00000000  0.98396423  1
