# generated using pymatgen
data_ScUO3
_symmetry_space_group_name_H-M   'P 1'
_cell_length_a   5.59959104
_cell_length_b   5.83143783
_cell_length_c   8.03895854
_cell_angle_alpha   90.00000000
_cell_angle_beta   90.00000000
_cell_angle_gamma   90.00000000
_symmetry_Int_Tables_number   1
_chemical_formula_structural   ScUO3
_chemical_formula_sum   'Sc4 U4 O12'
_cell_volume   262.50147528
_cell_formula_units_Z   4
loop_
 _symmetry_equiv_pos_site_id
 _symmetry_equiv_pos_as_xyz
  1  'x, y, z'
loop_
 _atom_site_type_symbol
 _atom_site_label
 _atom_site_symmetry_multiplicity
 _atom_site_fract_x
 _atom_site_fract_y
 _atom_site_fract_z
 _atom_site_occupancy
  O  O0  1  0.69397389  0.30369183  0.05017317  1
  O  O1  1  0.80602672  0.80369201  0.05017317  1
  O  O2  1  0.09881793  0.46836133  0.25000005  1
  O  O3  1  0.40118287  0.96836152  0.25000005  1
  O  O4  1  0.69397389  0.30369183  0.44982817  1
  O  O5  1  0.80602672  0.80369201  0.44982817  1
  O  O6  1  0.19397488  0.19630665  0.55017201  1
  O  O7  1  0.30602413  0.69630683  0.55017201  1
  O  O8  1  0.59881873  0.03163885  0.75000014  1
  O  O9  1  0.90118188  0.53163904  0.75000014  1
  O  O10  1  0.19397488  0.19630665  0.94982702  1
  O  O11  1  0.30602413  0.69630683  0.94982702  1
  Sc  Sc12  1  0.49999901  0.00000000  0.00000000  1
  Sc  Sc13  1  0.00000000  0.50000019  0.00000000  1
  Sc  Sc14  1  0.49999901  0.00000000  0.49999885  1
  Sc  Sc15  1  0.00000000  0.50000019  0.49999885  1
  U  U16  1  0.98795608  0.05599991  0.25000005  1
  U  U17  1  0.51204454  0.55600010  0.25000005  1
  U  U18  1  0.48795528  0.44400027  0.75000014  1
  U  U19  1  0.01204552  0.94400046  0.75000014  1
