# generated using pymatgen
data_CaGeO3
_symmetry_space_group_name_H-M   'P 1'
_cell_length_a   5.33181000
_cell_length_b   5.37445300
_cell_length_c   7.55271200
_cell_angle_alpha   90.00000000
_cell_angle_beta   90.00000000
_cell_angle_gamma   90.00000000
_symmetry_Int_Tables_number   1
_chemical_formula_structural   CaGeO3
_chemical_formula_sum   'Ca4 Ge4 O12'
_cell_volume   216.42720887
_cell_formula_units_Z   4
loop_
 _symmetry_equiv_pos_site_id
 _symmetry_equiv_pos_as_xyz
  1  'x, y, z'
loop_
 _atom_site_type_symbol
 _atom_site_label
 _atom_site_symmetry_multiplicity
 _atom_site_fract_x
 _atom_site_fract_y
 _atom_site_fract_z
 _atom_site_occupancy
  Ca  Ca0  1  0.99165100  0.03987800  0.25000000  1
  Ca  Ca1  1  0.49165100  0.46012200  0.75000000  1
  Ca  Ca2  1  0.50834900  0.53987800  0.25000000  1
  Ca  Ca3  1  0.00834900  0.96012200  0.75000000  1
  Ge  Ge4  1  0.00000000  0.50000000  0.00000000  1
  Ge  Ge5  1  0.50000000  0.00000000  0.00000000  1
  Ge  Ge6  1  0.50000000  0.00000000  0.50000000  1
  Ge  Ge7  1  0.00000000  0.50000000  0.50000000  1
  O  O8  1  0.71043900  0.28787000  0.46159200  1
  O  O9  1  0.21043900  0.21213000  0.53840800  1
  O  O10  1  0.78956100  0.78787000  0.03840800  1
  O  O11  1  0.28956100  0.71213000  0.96159200  1
  O  O12  1  0.28956100  0.71213000  0.53840800  1
  O  O13  1  0.78956100  0.78787000  0.46159200  1
  O  O14  1  0.21043900  0.21213000  0.96159200  1
  O  O15  1  0.71043900  0.28787000  0.03840800  1
  O  O16  1  0.07374100  0.48398700  0.25000000  1
  O  O17  1  0.57374000  0.01601300  0.75000000  1
  O  O18  1  0.42626000  0.98398700  0.25000000  1
  O  O19  1  0.92626000  0.51601300  0.75000000  1
