# generated using pymatgen
data_AgPtO3
_symmetry_space_group_name_H-M   'P 1'
_cell_length_a   3.86796631
_cell_length_b   3.86796631
_cell_length_c   4.08653806
_cell_angle_alpha   90.00000000
_cell_angle_beta   90.00000000
_cell_angle_gamma   90.00000000
_symmetry_Int_Tables_number   1
_chemical_formula_structural   AgPtO3
_chemical_formula_sum   'Ag1 Pt1 O3'
_cell_volume   61.13936342
_cell_formula_units_Z   1
loop_
 _symmetry_equiv_pos_site_id
 _symmetry_equiv_pos_as_xyz
  1  'x, y, z'
loop_
 _atom_site_type_symbol
 _atom_site_label
 _atom_site_symmetry_multiplicity
 _atom_site_fract_x
 _atom_site_fract_y
 _atom_site_fract_z
 _atom_site_occupancy
  Ag  Ag0  1  0.00000000  0.00000000  0.03794654  1
  O  O1  1  0.50000177  0.50000177  0.06368471  1
  O  O2  1  0.50000177  0.00000000  0.63058754  1
  O  O3  1  0.00000000  0.50000177  0.63058754  1
  Pt  Pt4  1  0.50000177  0.50000177  0.53719554  1
