# generated using pymatgen
data_LiZrO3
_symmetry_space_group_name_H-M   'P 1'
_cell_length_a   5.38533541
_cell_length_b   5.58527448
_cell_length_c   7.38381987
_cell_angle_alpha   90.00000000
_cell_angle_beta   90.00000000
_cell_angle_gamma   90.00000000
_symmetry_Int_Tables_number   1
_chemical_formula_structural   LiZrO3
_chemical_formula_sum   'Li4 Zr4 O12'
_cell_volume   222.09479038
_cell_formula_units_Z   4
loop_
 _symmetry_equiv_pos_site_id
 _symmetry_equiv_pos_as_xyz
  1  'x, y, z'
loop_
 _atom_site_type_symbol
 _atom_site_label
 _atom_site_symmetry_multiplicity
 _atom_site_fract_x
 _atom_site_fract_y
 _atom_site_fract_z
 _atom_site_occupancy
  Li  Li0  1  0.00886296  0.04343923  0.24999933  1
  Li  Li1  1  0.49113561  0.54343793  0.24999933  1
  Li  Li2  1  0.50886338  0.45656127  0.74999934  1
  Li  Li3  1  0.99113704  0.95656176  0.74999934  1
  O  O4  1  0.67391717  0.31835320  0.08959996  1
  O  O5  1  0.82608411  0.81835369  0.08959996  1
  O  O6  1  0.15076870  0.41432700  0.24999933  1
  O  O7  1  0.34923173  0.91432749  0.24999933  1
  O  O8  1  0.67391717  0.31835320  0.41040004  1
  O  O9  1  0.82608411  0.81835369  0.41040004  1
  O  O10  1  0.17391674  0.18164729  0.58959997  1
  O  O11  1  0.32608368  0.68164600  0.58959997  1
  O  O12  1  0.65076912  0.08567171  0.74999934  1
  O  O13  1  0.84923216  0.58567220  0.74999934  1
  O  O14  1  0.17391674  0.18164729  0.91040005  1
  O  O15  1  0.32608368  0.68164600  0.91040005  1
  Zr  Zr16  1  0.50000043  0.00000000  0.00000000  1
  Zr  Zr17  1  0.00000000  0.50000049  0.00000000  1
  Zr  Zr18  1  0.50000043  0.00000000  0.50000001  1
  Zr  Zr19  1  0.00000000  0.50000049  0.50000001  1
