# generated using pymatgen
data_LaCrO3
_symmetry_space_group_name_H-M   'P 1'
_cell_length_a   5.56728000
_cell_length_b   5.61169200
_cell_length_c   7.88797200
_cell_angle_alpha   90.00000000
_cell_angle_beta   90.00000000
_cell_angle_gamma   90.00000000
_symmetry_Int_Tables_number   1
_chemical_formula_structural   LaCrO3
_chemical_formula_sum   'La4 Cr4 O12'
_cell_volume   246.43492194
_cell_formula_units_Z   4
loop_
 _symmetry_equiv_pos_site_id
 _symmetry_equiv_pos_as_xyz
  1  'x, y, z'
loop_
 _atom_site_type_symbol
 _atom_site_label
 _atom_site_symmetry_multiplicity
 _atom_site_fract_x
 _atom_site_fract_y
 _atom_site_fract_z
 _atom_site_occupancy
  La  La0  1  0.00809900  0.96262900  0.75000000  1
  La  La1  1  0.49190100  0.46262900  0.75000000  1
  La  La2  1  0.50809900  0.53737100  0.25000000  1
  La  La3  1  0.99190100  0.03737100  0.25000000  1
  Cr  Cr4  1  0.50000000  0.00000000  0.50000000  1
  Cr  Cr5  1  0.00000000  0.50000000  0.00000000  1
  Cr  Cr6  1  0.00000000  0.50000000  0.50000000  1
  Cr  Cr7  1  0.50000000  0.00000000  0.00000000  1
  O  O8  1  0.71167400  0.28820500  0.45682200  1
  O  O9  1  0.78832600  0.78820500  0.04317800  1
  O  O10  1  0.21167400  0.21179500  0.54317800  1
  O  O11  1  0.28832600  0.71179500  0.95682200  1
  O  O12  1  0.28832600  0.71179500  0.54317800  1
  O  O13  1  0.21167400  0.21179500  0.95682200  1
  O  O14  1  0.78832600  0.78820500  0.45682200  1
  O  O15  1  0.71167400  0.28820500  0.04317800  1
  O  O16  1  0.08071900  0.48095700  0.25000000  1
  O  O17  1  0.41928100  0.98095700  0.25000000  1
  O  O18  1  0.58071900  0.01904300  0.75000000  1
  O  O19  1  0.91928100  0.51904300  0.75000000  1
