# generated using pymatgen
data_SrCrO3
_symmetry_space_group_name_H-M   'P 1'
_cell_length_a   5.45738443
_cell_length_b   5.45678195
_cell_length_c   7.66416740
_cell_angle_alpha   90.00000000
_cell_angle_beta   90.00000000
_cell_angle_gamma   90.00000000
_symmetry_Int_Tables_number   1
_chemical_formula_structural   SrCrO3
_chemical_formula_sum   'Sr4 Cr4 O12'
_cell_volume   228.23704160
_cell_formula_units_Z   4
loop_
 _symmetry_equiv_pos_site_id
 _symmetry_equiv_pos_as_xyz
  1  'x, y, z'
loop_
 _atom_site_type_symbol
 _atom_site_label
 _atom_site_symmetry_multiplicity
 _atom_site_fract_x
 _atom_site_fract_y
 _atom_site_fract_z
 _atom_site_occupancy
  Cr  Cr0  1  0.50000143  0.00000000  0.00000000  1
  Cr  Cr1  1  0.00000000  0.49999982  0.00000000  1
  Cr  Cr2  1  0.50000143  0.00000000  0.49999952  1
  Cr  Cr3  1  0.00000000  0.49999982  0.49999952  1
  O  O4  1  0.73826025  0.27247744  0.01521235  1
  O  O5  1  0.76174036  0.77247727  0.01521235  1
  O  O6  1  0.03197502  0.49408974  0.25000106  1
  O  O7  1  0.46802640  0.99408957  0.25000106  1
  O  O8  1  0.73826025  0.27247744  0.48478847  1
  O  O9  1  0.76174036  0.77247727  0.48478847  1
  O  O10  1  0.23825882  0.22752238  0.51521187  1
  O  O11  1  0.26174077  0.72752220  0.51521187  1
  O  O12  1  0.53197645  0.00591008  0.75000058  1
  O  O13  1  0.96802416  0.50590990  0.75000058  1
  O  O14  1  0.23825882  0.22752238  0.98478799  1
  O  O15  1  0.26174077  0.72752220  0.98478799  1
  Sr  Sr16  1  0.00074761  0.00672374  0.25000106  1
  Sr  Sr17  1  0.49925382  0.50672356  0.25000106  1
  Sr  Sr18  1  0.50074904  0.49327608  0.75000058  1
  Sr  Sr19  1  0.99925158  0.99327590  0.75000058  1
