# generated using pymatgen
data_PmCrO3
_symmetry_space_group_name_H-M   'P 1'
_cell_length_a   5.38593361
_cell_length_b   5.59440840
_cell_length_c   7.71642331
_cell_angle_alpha   90.00000000
_cell_angle_beta   90.00000000
_cell_angle_gamma   90.00000000
_symmetry_Int_Tables_number   1
_chemical_formula_structural   PmCrO3
_chemical_formula_sum   'Pm4 Cr4 O12'
_cell_volume   232.50441644
_cell_formula_units_Z   4
loop_
 _symmetry_equiv_pos_site_id
 _symmetry_equiv_pos_as_xyz
  1  'x, y, z'
loop_
 _atom_site_type_symbol
 _atom_site_label
 _atom_site_symmetry_multiplicity
 _atom_site_fract_x
 _atom_site_fract_y
 _atom_site_fract_z
 _atom_site_occupancy
  Cr  Cr0  1  0.50000059  0.00000000  0.00000000  1
  Cr  Cr1  1  0.00000000  0.49999925  0.00000000  1
  Cr  Cr2  1  0.50000059  0.00000000  0.49999979  1
  Cr  Cr3  1  0.00000000  0.49999925  0.49999979  1
  O  O4  1  0.70051365  0.29710916  0.04900198  1
  O  O5  1  0.79948628  0.79710841  0.04900198  1
  O  O6  1  0.09322246  0.47346740  0.25000054  1
  O  O7  1  0.40677813  0.97346665  0.25000054  1
  O  O8  1  0.70051365  0.29710916  0.45099781  1
  O  O9  1  0.79948628  0.79710841  0.45099781  1
  O  O10  1  0.20051491  0.20289187  0.54900306  1
  O  O11  1  0.29948568  0.70289112  0.54900306  1
  O  O12  1  0.59322120  0.02653185  0.75000033  1
  O  O13  1  0.90677872  0.52653289  0.75000033  1
  O  O14  1  0.20051491  0.20289187  0.95099759  1
  O  O15  1  0.29948568  0.70289112  0.95099759  1
  Pm  Pm16  1  0.98547074  0.05802401  0.25000054  1
  Pm  Pm17  1  0.51452918  0.55802326  0.25000054  1
  Pm  Pm18  1  0.48547015  0.44197524  0.75000033  1
  Pm  Pm19  1  0.01453044  0.94197628  0.75000033  1
