# generated using pymatgen
data_CeAuO3
_symmetry_space_group_name_H-M   'P 1'
_cell_length_a   5.75562480
_cell_length_b   6.58371297
_cell_length_c   7.47560838
_cell_angle_alpha   90.00000000
_cell_angle_beta   90.00000000
_cell_angle_gamma   90.00000000
_symmetry_Int_Tables_number   1
_chemical_formula_structural   CeAuO3
_chemical_formula_sum   'Ce4 Au4 O12'
_cell_volume   283.27608145
_cell_formula_units_Z   4
loop_
 _symmetry_equiv_pos_site_id
 _symmetry_equiv_pos_as_xyz
  1  'x, y, z'
loop_
 _atom_site_type_symbol
 _atom_site_label
 _atom_site_symmetry_multiplicity
 _atom_site_fract_x
 _atom_site_fract_y
 _atom_site_fract_z
 _atom_site_occupancy
  Au  Au0  1  0.49999958  0.00000000  0.00000000  1
  Au  Au1  1  0.00000000  0.50000053  0.00000000  1
  Au  Au2  1  0.49999958  0.00000000  0.49999944  1
  Au  Au3  1  0.00000000  0.50000053  0.49999944  1
  Ce  Ce4  1  0.96847001  0.09881354  0.24999972  1
  Ce  Ce5  1  0.53153048  0.59881256  0.24999972  1
  Ce  Ce6  1  0.46847043  0.40118699  0.75000050  1
  Ce  Ce7  1  0.03152916  0.90118753  0.75000050  1
  O  O8  1  0.70286374  0.34768071  0.05357959  1
  O  O9  1  0.79713500  0.84768124  0.05357959  1
  O  O10  1  0.13888675  0.44448171  0.24999972  1
  O  O11  1  0.36111284  0.94448072  0.24999972  1
  O  O12  1  0.70286374  0.34768071  0.44641985  1
  O  O13  1  0.79713500  0.84768124  0.44641985  1
  O  O14  1  0.20286416  0.15231982  0.55357903  1
  O  O15  1  0.29713542  0.65231884  0.55357903  1
  O  O16  1  0.63888633  0.05551882  0.75000050  1
  O  O17  1  0.86111416  0.55551936  0.75000050  1
  O  O18  1  0.20286416  0.15231982  0.94642063  1
  O  O19  1  0.29713542  0.65231884  0.94642063  1
