# generated using pymatgen
data_YbTeO3
_symmetry_space_group_name_H-M   'P 1'
_cell_length_a   5.59615982
_cell_length_b   5.92783533
_cell_length_c   8.10320588
_cell_angle_alpha   90.00000000
_cell_angle_beta   90.00000000
_cell_angle_gamma   90.00000000
_symmetry_Int_Tables_number   1
_chemical_formula_structural   YbTeO3
_chemical_formula_sum   'Yb4 Te4 O12'
_cell_volume   268.80857151
_cell_formula_units_Z   4
loop_
 _symmetry_equiv_pos_site_id
 _symmetry_equiv_pos_as_xyz
  1  'x, y, z'
loop_
 _atom_site_type_symbol
 _atom_site_label
 _atom_site_symmetry_multiplicity
 _atom_site_fract_x
 _atom_site_fract_y
 _atom_site_fract_z
 _atom_site_occupancy
  O  O0  1  0.68766263  0.30652505  0.06700558  1
  O  O1  1  0.81233920  0.80652544  0.06700558  1
  O  O2  1  0.13342900  0.43768928  0.25000105  1
  O  O3  1  0.36657102  0.93768968  0.25000105  1
  O  O4  1  0.68766263  0.30652505  0.43299406  1
  O  O5  1  0.81233920  0.80652544  0.43299406  1
  O  O6  1  0.18766262  0.19347366  0.56700522  1
  O  O7  1  0.31233919  0.69347405  0.56700522  1
  O  O8  1  0.63342901  0.06230942  0.75000069  1
  O  O9  1  0.86657103  0.56230982  0.75000069  1
  O  O10  1  0.18766262  0.19347366  0.93299493  1
  O  O11  1  0.31233919  0.69347405  0.93299493  1
  Te  Te12  1  0.50000002  0.00000000  0.00000000  1
  Te  Te13  1  0.00000000  0.50000039  0.00000000  1
  Te  Te14  1  0.50000002  0.00000000  0.49999964  1
  Te  Te15  1  0.00000000  0.50000039  0.49999964  1
  Yb  Yb16  1  0.97923043  0.06435233  0.25000105  1
  Yb  Yb17  1  0.52077140  0.56435441  0.25000105  1
  Yb  Yb18  1  0.47923042  0.43564638  0.75000069  1
  Yb  Yb19  1  0.02077139  0.93564677  0.75000069  1
