# generated using pymatgen
data_ThTiO3
_symmetry_space_group_name_H-M   'P 1'
_cell_length_a   5.50205655
_cell_length_b   5.98172209
_cell_length_c   7.66948902
_cell_angle_alpha   90.00000000
_cell_angle_beta   90.00000000
_cell_angle_gamma   90.00000000
_symmetry_Int_Tables_number   1
_chemical_formula_structural   ThTiO3
_chemical_formula_sum   'Th4 Ti4 O12'
_cell_volume   252.41648332
_cell_formula_units_Z   4
loop_
 _symmetry_equiv_pos_site_id
 _symmetry_equiv_pos_as_xyz
  1  'x, y, z'
loop_
 _atom_site_type_symbol
 _atom_site_label
 _atom_site_symmetry_multiplicity
 _atom_site_fract_x
 _atom_site_fract_y
 _atom_site_fract_z
 _atom_site_occupancy
  O  O0  1  0.67926964  0.30415823  0.05120419  1
  O  O1  1  0.82073130  0.80415973  0.05120419  1
  O  O2  1  0.13002593  0.46494136  0.24999971  1
  O  O3  1  0.36997257  0.96494119  0.24999971  1
  O  O4  1  0.67926964  0.30415823  0.44879522  1
  O  O5  1  0.82073130  0.80415973  0.44879522  1
  O  O6  1  0.17926933  0.19584160  0.55120491  1
  O  O7  1  0.32073098  0.69584142  0.55120491  1
  O  O8  1  0.63002624  0.03505847  0.75000042  1
  O  O9  1  0.86997288  0.53505829  0.75000042  1
  O  O10  1  0.17926933  0.19584160  0.94879463  1
  O  O11  1  0.32073098  0.69584142  0.94879463  1
  Th  Th12  1  0.97181662  0.09398297  0.24999971  1
  Th  Th13  1  0.52818432  0.59398447  0.24999971  1
  Th  Th14  1  0.47181631  0.40601686  0.75000042  1
  Th  Th15  1  0.02818401  0.90601668  0.75000042  1
  Ti  Ti16  1  0.50000031  0.00000000  0.00000000  1
  Ti  Ti17  1  0.00000000  0.49999983  0.00000000  1
  Ti  Ti18  1  0.50000031  0.00000000  0.49999941  1
  Ti  Ti19  1  0.00000000  0.49999983  0.49999941  1
