# generated using pymatgen
data_YbAlO3
_symmetry_space_group_name_H-M   'P 1'
_cell_length_a   5.15900469
_cell_length_b   5.22325473
_cell_length_c   7.33150433
_cell_angle_alpha   90.00000000
_cell_angle_beta   90.00000000
_cell_angle_gamma   90.00000000
_symmetry_Int_Tables_number   1
_chemical_formula_structural   YbAlO3
_chemical_formula_sum   'Yb4 Al4 O12'
_cell_volume   197.56054900
_cell_formula_units_Z   4
loop_
 _symmetry_equiv_pos_site_id
 _symmetry_equiv_pos_as_xyz
  1  'x, y, z'
loop_
 _atom_site_type_symbol
 _atom_site_label
 _atom_site_symmetry_multiplicity
 _atom_site_fract_x
 _atom_site_fract_y
 _atom_site_fract_z
 _atom_site_occupancy
  Al  Al0  1  0.49999955  0.00000000  0.00000000  1
  Al  Al1  1  0.00000000  0.50000050  0.00000000  1
  Al  Al2  1  0.49999955  0.00000000  0.49999970  1
  Al  Al3  1  0.00000000  0.50000050  0.49999970  1
  O  O4  1  0.74059053  0.25912962  0.00674214  1
  O  O5  1  0.75941005  0.75913012  0.00674214  1
  O  O6  1  0.01353556  0.49954868  0.25000053  1
  O  O7  1  0.48646593  0.99954817  0.25000053  1
  O  O8  1  0.74059053  0.25912962  0.49325893  1
  O  O9  1  0.75941005  0.75913012  0.49325893  1
  O  O10  1  0.24058904  0.24086897  0.50674184  1
  O  O11  1  0.25941050  0.74086948  0.50674184  1
  O  O12  1  0.51353510  0.00045183  0.75000024  1
  O  O13  1  0.98646547  0.50045233  0.75000024  1
  O  O14  1  0.24058904  0.24086897  0.99325864  1
  O  O15  1  0.25941050  0.74086948  0.99325864  1
  Yb  Yb16  1  0.99931188  0.00332168  0.25000053  1
  Yb  Yb17  1  0.50068766  0.50332219  0.25000053  1
  Yb  Yb18  1  0.49931337  0.49667691  0.75000024  1
  Yb  Yb19  1  0.00068812  0.99667741  0.75000024  1
