# generated using pymatgen
data_YZnO3
_symmetry_space_group_name_H-M   'P 1'
_cell_length_a   5.25503893
_cell_length_b   5.77734646
_cell_length_c   7.46137838
_cell_angle_alpha   90.00000000
_cell_angle_beta   90.00000000
_cell_angle_gamma   90.00000000
_symmetry_Int_Tables_number   1
_chemical_formula_structural   YZnO3
_chemical_formula_sum   'Y4 Zn4 O12'
_cell_volume   226.52879463
_cell_formula_units_Z   4
loop_
 _symmetry_equiv_pos_site_id
 _symmetry_equiv_pos_as_xyz
  1  'x, y, z'
loop_
 _atom_site_type_symbol
 _atom_site_label
 _atom_site_symmetry_multiplicity
 _atom_site_fract_x
 _atom_site_fract_y
 _atom_site_fract_z
 _atom_site_occupancy
  O  O0  1  0.69444585  0.31634939  0.05560501  1
  O  O1  1  0.80555445  0.81635056  0.05560501  1
  O  O2  1  0.11578601  0.46380462  0.25000072  1
  O  O3  1  0.38421409  0.96380406  0.25000072  1
  O  O4  1  0.69444585  0.31634939  0.44439510  1
  O  O5  1  0.80555445  0.81635056  0.44439510  1
  O  O6  1  0.19444575  0.18365179  0.55560512  1
  O  O7  1  0.30555435  0.68365123  0.55560512  1
  O  O8  1  0.61578611  0.03619482  0.75000083  1
  O  O9  1  0.88421419  0.53619426  0.75000083  1
  O  O10  1  0.19444575  0.18365179  0.94439387  1
  O  O11  1  0.30555435  0.68365123  0.94439387  1
  Y  Y12  1  0.97673872  0.08501308  0.25000072  1
  Y  Y13  1  0.52326159  0.58501252  0.25000072  1
  Y  Y14  1  0.47673862  0.41498636  0.75000083  1
  Y  Y15  1  0.02326148  0.91498580  0.75000083  1
  Zn  Zn16  1  0.50000010  0.00000000  0.00000000  1
  Zn  Zn17  1  0.00000000  0.49999944  0.00000000  1
  Zn  Zn18  1  0.50000010  0.00000000  0.50000011  1
  Zn  Zn19  1  0.00000000  0.49999944  0.50000011  1
