# generated using pymatgen
data_ThAlO3
_symmetry_space_group_name_H-M   'P 1'
_cell_length_a   5.36107721
_cell_length_b   5.36107721
_cell_length_c   5.36107703
_cell_angle_alpha   60.00745779
_cell_angle_beta   60.00745779
_cell_angle_gamma   60.00746308
_symmetry_Int_Tables_number   1
_chemical_formula_structural   ThAlO3
_chemical_formula_sum   'Th2 Al2 O6'
_cell_volume   108.97192287
_cell_formula_units_Z   2
loop_
 _symmetry_equiv_pos_site_id
 _symmetry_equiv_pos_as_xyz
  1  'x, y, z'
loop_
 _atom_site_type_symbol
 _atom_site_label
 _atom_site_symmetry_multiplicity
 _atom_site_fract_x
 _atom_site_fract_y
 _atom_site_fract_z
 _atom_site_occupancy
  Al  Al0  1  0.00000000  0.00000000  0.00000000  1
  Al  Al1  1  0.49999988  0.49999988  0.49999988  1
  O  O2  1  0.75000084  0.25034792  0.24965171  1
  O  O3  1  0.74965116  0.75034870  0.25000124  1
  O  O4  1  0.24965321  0.74999993  0.25034732  1
  O  O5  1  0.75034732  0.25000059  0.74965320  1
  O  O6  1  0.25034936  0.24965182  0.74999928  1
  O  O7  1  0.24999969  0.74965260  0.75034882  1
  Th  Th8  1  0.24999994  0.24999994  0.24999994  1
  Th  Th9  1  0.74999982  0.74999982  0.74999982  1
