# generated using pymatgen
data_CeErO3
_symmetry_space_group_name_H-M   'P 1'
_cell_length_a   5.81473294
_cell_length_b   6.05701630
_cell_length_c   8.41113047
_cell_angle_alpha   90.00000000
_cell_angle_beta   90.00000000
_cell_angle_gamma   90.00000000
_symmetry_Int_Tables_number   1
_chemical_formula_structural   CeErO3
_chemical_formula_sum   'Ce4 Er4 O12'
_cell_volume   296.23944489
_cell_formula_units_Z   4
loop_
 _symmetry_equiv_pos_site_id
 _symmetry_equiv_pos_as_xyz
  1  'x, y, z'
loop_
 _atom_site_type_symbol
 _atom_site_label
 _atom_site_symmetry_multiplicity
 _atom_site_fract_x
 _atom_site_fract_y
 _atom_site_fract_z
 _atom_site_occupancy
  Ce  Ce0  1  0.98312340  0.05350984  0.25000088  1
  Ce  Ce1  1  0.51687670  0.55351015  0.25000088  1
  Ce  Ce2  1  0.48312451  0.44648881  0.75000026  1
  Ce  Ce3  1  0.01687438  0.94649077  0.75000026  1
  Er  Er4  1  0.49999889  0.00000000  0.00000000  1
  Er  Er5  1  0.00000000  0.49999865  0.00000000  1
  Er  Er6  1  0.49999889  0.00000000  0.49999938  1
  Er  Er7  1  0.00000000  0.49999865  0.49999938  1
  O  O8  1  0.69272657  0.30486958  0.06692798  1
  O  O9  1  0.80727525  0.80486988  0.06692798  1
  O  O10  1  0.12660427  0.44332223  0.25000088  1
  O  O11  1  0.37339634  0.94332254  0.25000088  1
  O  O12  1  0.69272657  0.30486958  0.43307258  1
  O  O13  1  0.80727525  0.80486988  0.43307258  1
  O  O14  1  0.19272424  0.19513073  0.56692855  1
  O  O15  1  0.30727465  0.69512938  0.56692855  1
  O  O16  1  0.62660315  0.05667807  0.75000026  1
  O  O17  1  0.87339523  0.55667838  0.75000026  1
  O  O18  1  0.19272424  0.19513073  0.93307196  1
  O  O19  1  0.30727465  0.69512938  0.93307196  1
