# generated using pymatgen
data_AcLuO3
_symmetry_space_group_name_H-M   'P 1'
_cell_length_a   5.90531916
_cell_length_b   6.04712989
_cell_length_c   8.42893386
_cell_angle_alpha   90.00000000
_cell_angle_beta   90.00000000
_cell_angle_gamma   90.00000000
_symmetry_Int_Tables_number   1
_chemical_formula_structural   AcLuO3
_chemical_formula_sum   'Ac4 Lu4 O12'
_cell_volume   300.99918376
_cell_formula_units_Z   4
loop_
 _symmetry_equiv_pos_site_id
 _symmetry_equiv_pos_as_xyz
  1  'x, y, z'
loop_
 _atom_site_type_symbol
 _atom_site_label
 _atom_site_symmetry_multiplicity
 _atom_site_fract_x
 _atom_site_fract_y
 _atom_site_fract_z
 _atom_site_occupancy
  Ac  Ac0  1  0.98956548  0.04469062  0.25000078  1
  Ac  Ac1  1  0.51043643  0.54468980  0.25000078  1
  Ac  Ac2  1  0.48956372  0.45530856  0.74999995  1
  Ac  Ac3  1  0.01043466  0.95530940  0.74999995  1
  Lu  Lu4  1  0.49999838  0.00000000  0.00000000  1
  Lu  Lu5  1  0.00000000  0.50000084  0.00000000  1
  Lu  Lu6  1  0.49999838  0.00000000  0.50000036  1
  Lu  Lu7  1  0.00000000  0.50000084  0.50000036  1
  O  O8  1  0.69994185  0.29922460  0.05370074  1
  O  O9  1  0.80006006  0.79922543  0.05370074  1
  O  O10  1  0.10152034  0.46113446  0.25000078  1
  O  O11  1  0.39847973  0.96113530  0.25000078  1
  O  O12  1  0.69994185  0.29922460  0.44629844  1
  O  O13  1  0.80006006  0.79922543  0.44629844  1
  O  O14  1  0.19994008  0.20077459  0.55370111  1
  O  O15  1  0.30005830  0.70077542  0.55370111  1
  O  O16  1  0.60152041  0.03886472  0.74999995  1
  O  O17  1  0.89847811  0.53886555  0.74999995  1
  O  O18  1  0.19994008  0.20077459  0.94629880  1
  O  O19  1  0.30005830  0.70077542  0.94629880  1
