# generated using pymatgen
data_MoAuO3
_symmetry_space_group_name_H-M   'P 1'
_cell_length_a   5.41806210
_cell_length_b   5.58583099
_cell_length_c   7.78001665
_cell_angle_alpha   90.00000000
_cell_angle_beta   90.00000000
_cell_angle_gamma   90.00000000
_symmetry_Int_Tables_number   1
_chemical_formula_structural   MoAuO3
_chemical_formula_sum   'Mo4 Au4 O12'
_cell_volume   235.45737432
_cell_formula_units_Z   4
loop_
 _symmetry_equiv_pos_site_id
 _symmetry_equiv_pos_as_xyz
  1  'x, y, z'
loop_
 _atom_site_type_symbol
 _atom_site_label
 _atom_site_symmetry_multiplicity
 _atom_site_fract_x
 _atom_site_fract_y
 _atom_site_fract_z
 _atom_site_occupancy
  Au  Au0  1  0.49980047  0.49429709  0.25000075  1
  Au  Au1  1  0.00019933  0.99429790  0.25000075  1
  Au  Au2  1  0.99980067  0.00570193  0.75000097  1
  Au  Au3  1  0.50019914  0.50570273  0.75000097  1
  Mo  Mo4  1  0.49999981  0.00000000  0.00000000  1
  Mo  Mo5  1  0.00000000  0.50000081  0.00000000  1
  Mo  Mo6  1  0.49999981  0.00000000  0.50000021  1
  Mo  Mo7  1  0.00000000  0.50000081  0.50000021  1
  O  O8  1  0.70847471  0.28830267  0.02418632  1
  O  O9  1  0.79152470  0.78830169  0.02418632  1
  O  O10  1  0.04862809  0.48849670  0.25000075  1
  O  O11  1  0.45137172  0.98849751  0.25000075  1
  O  O12  1  0.70847471  0.28830267  0.47581261  1
  O  O13  1  0.79152470  0.78830169  0.47581261  1
  O  O14  1  0.20847675  0.21169813  0.52418654  1
  O  O15  1  0.29152305  0.71169715  0.52418654  1
  O  O16  1  0.54862789  0.01150232  0.75000097  1
  O  O17  1  0.95137152  0.51150312  0.75000097  1
  O  O18  1  0.20847675  0.21169813  0.97581282  1
  O  O19  1  0.29152305  0.71169715  0.97581282  1
