# generated using pymatgen
data_ErMnO3
_symmetry_space_group_name_H-M   'P 1'
_cell_length_a   5.29357900
_cell_length_b   5.84403200
_cell_length_c   7.45579300
_cell_angle_alpha   90.00000000
_cell_angle_beta   90.00000000
_cell_angle_gamma   90.00000000
_symmetry_Int_Tables_number   1
_chemical_formula_structural   ErMnO3
_chemical_formula_sum   'Er4 Mn4 O12'
_cell_volume   230.65125713
_cell_formula_units_Z   4
loop_
 _symmetry_equiv_pos_site_id
 _symmetry_equiv_pos_as_xyz
  1  'x, y, z'
loop_
 _atom_site_type_symbol
 _atom_site_label
 _atom_site_symmetry_multiplicity
 _atom_site_fract_x
 _atom_site_fract_y
 _atom_site_fract_z
 _atom_site_occupancy
  Er  Er0  1  0.01930900  0.91642800  0.75000000  1
  Er  Er1  1  0.51930900  0.58357200  0.25000000  1
  Er  Er2  1  0.48069100  0.41642800  0.75000000  1
  Er  Er3  1  0.98069100  0.08357200  0.25000000  1
  Mn  Mn4  1  0.50000000  0.00000000  0.50000000  1
  Mn  Mn5  1  0.00000000  0.50000000  0.50000000  1
  Mn  Mn6  1  0.00000000  0.50000000  0.00000000  1
  Mn  Mn7  1  0.50000000  0.00000000  0.00000000  1
  O  O8  1  0.69847300  0.32714900  0.44157700  1
  O  O9  1  0.19847300  0.17285100  0.55842300  1
  O  O10  1  0.80152700  0.82714900  0.05842300  1
  O  O11  1  0.30152700  0.67285100  0.94157700  1
  O  O12  1  0.30152700  0.67285100  0.55842300  1
  O  O13  1  0.80152700  0.82714900  0.44157700  1
  O  O14  1  0.19847300  0.17285100  0.94157700  1
  O  O15  1  0.69847300  0.32714900  0.05842300  1
  O  O16  1  0.12368500  0.45447200  0.25000000  1
  O  O17  1  0.62368500  0.04552800  0.75000000  1
  O  O18  1  0.37631500  0.95447200  0.25000000  1
  O  O19  1  0.87631500  0.54552800  0.75000000  1
