# generated using pymatgen
data_CaReO3
_symmetry_space_group_name_H-M   'P 1'
_cell_length_a   5.34257724
_cell_length_b   5.62833909
_cell_length_c   7.70617208
_cell_angle_alpha   90.00000000
_cell_angle_beta   90.00000000
_cell_angle_gamma   90.00000000
_symmetry_Int_Tables_number   1
_chemical_formula_structural   CaReO3
_chemical_formula_sum   'Ca4 Re4 O12'
_cell_volume   231.72333268
_cell_formula_units_Z   4
loop_
 _symmetry_equiv_pos_site_id
 _symmetry_equiv_pos_as_xyz
  1  'x, y, z'
loop_
 _atom_site_type_symbol
 _atom_site_label
 _atom_site_symmetry_multiplicity
 _atom_site_fract_x
 _atom_site_fract_y
 _atom_site_fract_z
 _atom_site_occupancy
  Ca  Ca0  1  0.98183326  0.06020604  0.25000091  1
  Ca  Ca1  1  0.51816565  0.56020434  0.25000091  1
  Ca  Ca2  1  0.48183300  0.43979404  0.75000012  1
  Ca  Ca3  1  0.01816539  0.93979412  0.75000012  1
  O  O4  1  0.69901844  0.29463754  0.04646146  1
  O  O5  1  0.80098234  0.79463940  0.04646146  1
  O  O6  1  0.09841131  0.47518637  0.25000091  1
  O  O7  1  0.40158895  0.97518645  0.25000091  1
  O  O8  1  0.69901844  0.29463754  0.45353905  1
  O  O9  1  0.80098234  0.79463940  0.45353905  1
  O  O10  1  0.19901818  0.20536076  0.54646197  1
  O  O11  1  0.30098208  0.70536084  0.54646197  1
  O  O12  1  0.59840969  0.02481371  0.75000012  1
  O  O13  1  0.90158921  0.52481202  0.75000012  1
  O  O14  1  0.19901818  0.20536076  0.95353827  1
  O  O15  1  0.30098208  0.70536084  0.95353827  1
  Re  Re16  1  0.50000026  0.00000000  0.00000000  1
  Re  Re17  1  0.00000000  0.50000008  0.00000000  1
  Re  Re18  1  0.50000026  0.00000000  0.49999922  1
  Re  Re19  1  0.00000000  0.50000008  0.49999922  1
