# generated using pymatgen
data_HgTeO3
_symmetry_space_group_name_H-M   'P 1'
_cell_length_a   5.76543362
_cell_length_b   5.85661846
_cell_length_c   8.31513957
_cell_angle_alpha   90.00000000
_cell_angle_beta   90.00000000
_cell_angle_gamma   90.00000000
_symmetry_Int_Tables_number   1
_chemical_formula_structural   HgTeO3
_chemical_formula_sum   'Hg4 Te4 O12'
_cell_volume   280.76854507
_cell_formula_units_Z   4
loop_
 _symmetry_equiv_pos_site_id
 _symmetry_equiv_pos_as_xyz
  1  'x, y, z'
loop_
 _atom_site_type_symbol
 _atom_site_label
 _atom_site_symmetry_multiplicity
 _atom_site_fract_x
 _atom_site_fract_y
 _atom_site_fract_z
 _atom_site_occupancy
  Hg  Hg0  1  0.98998451  0.03648010  0.25000061  1
  Hg  Hg1  1  0.51001541  0.53648023  0.25000061  1
  Hg  Hg2  1  0.48998396  0.46352004  0.75000064  1
  Hg  Hg3  1  0.01001486  0.96352017  0.75000064  1
  O  O4  1  0.69646453  0.30189093  0.06278067  1
  O  O5  1  0.80353540  0.80189106  0.06278067  1
  O  O6  1  0.11622196  0.43462794  0.25000061  1
  O  O7  1  0.38377686  0.93462807  0.25000061  1
  O  O8  1  0.69646453  0.30189093  0.43721936  1
  O  O9  1  0.80353540  0.80189106  0.43721936  1
  O  O10  1  0.19646397  0.19810920  0.56278069  1
  O  O11  1  0.30353485  0.69810933  0.56278069  1
  O  O12  1  0.61622425  0.06537219  0.75000064  1
  O  O13  1  0.88377741  0.56537233  0.75000064  1
  O  O14  1  0.19646397  0.19810920  0.93721939  1
  O  O15  1  0.30353485  0.69810933  0.93721939  1
  Te  Te16  1  0.49999882  0.00000000  0.00000000  1
  Te  Te17  1  0.00000000  0.50000013  0.00000000  1
  Te  Te18  1  0.49999882  0.00000000  0.50000003  1
  Te  Te19  1  0.00000000  0.50000013  0.50000003  1
