# generated using pymatgen
data_TlPbO3
_symmetry_space_group_name_H-M   'P 1'
_cell_length_a   5.78113998
_cell_length_b   6.03145035
_cell_length_c   8.52457437
_cell_angle_alpha   90.00000000
_cell_angle_beta   90.00000000
_cell_angle_gamma   90.00000000
_symmetry_Int_Tables_number   1
_chemical_formula_structural   TlPbO3
_chemical_formula_sum   'Tl4 Pb4 O12'
_cell_volume   297.24047475
_cell_formula_units_Z   4
loop_
 _symmetry_equiv_pos_site_id
 _symmetry_equiv_pos_as_xyz
  1  'x, y, z'
loop_
 _atom_site_type_symbol
 _atom_site_label
 _atom_site_symmetry_multiplicity
 _atom_site_fract_x
 _atom_site_fract_y
 _atom_site_fract_z
 _atom_site_occupancy
  O  O0  1  0.68388588  0.31322980  0.07753701  1
  O  O1  1  0.81611413  0.81323060  0.07753701  1
  O  O2  1  0.15355968  0.41131235  0.24999958  1
  O  O3  1  0.34644032  0.91131315  0.24999958  1
  O  O4  1  0.68388588  0.31322980  0.42246332  1
  O  O5  1  0.81611413  0.81323060  0.42246332  1
  O  O6  1  0.18388588  0.18676934  0.57753734  1
  O  O7  1  0.31611412  0.68677014  0.57753734  1
  O  O8  1  0.65355968  0.08868679  0.74999991  1
  O  O9  1  0.84644032  0.58868760  0.74999991  1
  O  O10  1  0.18388588  0.18676934  0.92246248  1
  O  O11  1  0.31611412  0.68677014  0.92246248  1
  Pb  Pb12  1  0.98272486  0.05037263  0.24999958  1
  Pb  Pb13  1  0.51727514  0.55037177  0.24999958  1
  Pb  Pb14  1  0.48272486  0.44962817  0.74999991  1
  Pb  Pb15  1  0.01727514  0.94962732  0.74999991  1
  Tl  Tl16  1  0.50000000  0.00000000  0.00000000  1
  Tl  Tl17  1  0.00000000  0.50000080  0.00000000  1
  Tl  Tl18  1  0.50000000  0.00000000  0.50000033  1
  Tl  Tl19  1  0.00000000  0.50000080  0.50000033  1
