# generated using pymatgen
data_PrErO3
_symmetry_space_group_name_H-M   'P 1'
_cell_length_a   5.78069824
_cell_length_b   6.03948971
_cell_length_c   8.37694916
_cell_angle_alpha   90.00000000
_cell_angle_beta   90.00000000
_cell_angle_gamma   90.00000000
_symmetry_Int_Tables_number   1
_chemical_formula_structural   PrErO3
_chemical_formula_sum   'Pr4 Er4 O12'
_cell_volume   292.45996600
_cell_formula_units_Z   4
loop_
 _symmetry_equiv_pos_site_id
 _symmetry_equiv_pos_as_xyz
  1  'x, y, z'
loop_
 _atom_site_type_symbol
 _atom_site_label
 _atom_site_symmetry_multiplicity
 _atom_site_fract_x
 _atom_site_fract_y
 _atom_site_fract_z
 _atom_site_occupancy
  Er  Er0  1  0.50000015  0.00000000  0.00000000  1
  Er  Er1  1  0.00000000  0.49999920  0.00000000  1
  Er  Er2  1  0.50000015  0.00000000  0.49999945  1
  Er  Er3  1  0.00000000  0.49999920  0.49999945  1
  O  O4  1  0.68851371  0.30853931  0.06772275  1
  O  O5  1  0.81148674  0.80854016  0.06772275  1
  O  O6  1  0.13040466  0.43938480  0.25000032  1
  O  O7  1  0.36959722  0.93938566  0.25000032  1
  O  O8  1  0.68851371  0.30853931  0.43227671  1
  O  O9  1  0.81148674  0.80854016  0.43227671  1
  O  O10  1  0.18851529  0.19145988  0.56772459  1
  O  O11  1  0.31148659  0.69146074  0.56772459  1
  O  O12  1  0.63040308  0.06061439  0.74999978  1
  O  O13  1  0.86959737  0.56061524  0.74999978  1
  O  O14  1  0.18851529  0.19145988  0.93227616  1
  O  O15  1  0.31148659  0.69146074  0.93227616  1
  Pr  Pr16  1  0.98399186  0.05516360  0.25000032  1
  Pr  Pr17  1  0.51600860  0.55516280  0.25000032  1
  Pr  Pr18  1  0.48399171  0.44483560  0.74999978  1
  Pr  Pr19  1  0.01600845  0.94483645  0.74999978  1
