# generated using pymatgen
data_HoScO3
_symmetry_space_group_name_H-M   'P 1'
_cell_length_a   5.43751200
_cell_length_b   5.73331800
_cell_length_c   7.97480200
_cell_angle_alpha   90.00000000
_cell_angle_beta   90.00000000
_cell_angle_gamma   90.00000000
_symmetry_Int_Tables_number   1
_chemical_formula_structural   HoScO3
_chemical_formula_sum   'Ho4 Sc4 O12'
_cell_volume   248.61433612
_cell_formula_units_Z   4
loop_
 _symmetry_equiv_pos_site_id
 _symmetry_equiv_pos_as_xyz
  1  'x, y, z'
loop_
 _atom_site_type_symbol
 _atom_site_label
 _atom_site_symmetry_multiplicity
 _atom_site_fract_x
 _atom_site_fract_y
 _atom_site_fract_z
 _atom_site_occupancy
  Ho  Ho0  1  0.98017900  0.06209000  0.75000000  1
  Ho  Ho1  1  0.48017900  0.43791000  0.25000000  1
  Ho  Ho2  1  0.51982100  0.56209000  0.75000000  1
  Ho  Ho3  1  0.01982100  0.93791000  0.25000000  1
  Sc  Sc4  1  0.00000000  0.50000000  0.50000000  1
  Sc  Sc5  1  0.50000000  0.00000000  0.50000000  1
  Sc  Sc6  1  0.50000000  0.00000000  0.00000000  1
  Sc  Sc7  1  0.00000000  0.50000000  0.00000000  1
  O  O8  1  0.68964300  0.30758900  0.56916600  1
  O  O9  1  0.18964300  0.19241100  0.43083400  1
  O  O10  1  0.81035700  0.80758900  0.93083400  1
  O  O11  1  0.31035700  0.69241100  0.06916600  1
  O  O12  1  0.31035700  0.69241100  0.43083400  1
  O  O13  1  0.81035700  0.80758900  0.56916600  1
  O  O14  1  0.18964300  0.19241100  0.06916600  1
  O  O15  1  0.68964300  0.30758900  0.93083400  1
  O  O16  1  0.86764800  0.55916600  0.25000000  1
  O  O17  1  0.36764800  0.94083400  0.75000000  1
  O  O18  1  0.63235200  0.05916600  0.25000000  1
  O  O19  1  0.13235200  0.44083400  0.75000000  1
