# generated using pymatgen
data_PuMnO3
_symmetry_space_group_name_H-M   'P 1'
_cell_length_a   5.48332147
_cell_length_b   5.60828249
_cell_length_c   7.73284167
_cell_angle_alpha   90.00000000
_cell_angle_beta   90.00000000
_cell_angle_gamma   90.00000000
_symmetry_Int_Tables_number   1
_chemical_formula_structural   PuMnO3
_chemical_formula_sum   'Pu4 Mn4 O12'
_cell_volume   237.80046945
_cell_formula_units_Z   4
loop_
 _symmetry_equiv_pos_site_id
 _symmetry_equiv_pos_as_xyz
  1  'x, y, z'
loop_
 _atom_site_type_symbol
 _atom_site_label
 _atom_site_symmetry_multiplicity
 _atom_site_fract_x
 _atom_site_fract_y
 _atom_site_fract_z
 _atom_site_occupancy
  Mn  Mn0  1  0.49999987  0.00000000  0.00000000  1
  Mn  Mn1  1  0.00000000  0.49999978  0.00000000  1
  Mn  Mn2  1  0.49999987  0.00000000  0.49999989  1
  Mn  Mn3  1  0.00000000  0.49999978  0.49999989  1
  O  O4  1  0.70746354  0.29973704  0.04017152  1
  O  O5  1  0.79253606  0.79973682  0.04017152  1
  O  O6  1  0.07982206  0.48051966  0.24999995  1
  O  O7  1  0.42017781  0.98052122  0.24999995  1
  O  O8  1  0.70746354  0.29973704  0.45982837  1
  O  O9  1  0.79253606  0.79973682  0.45982837  1
  O  O10  1  0.20746549  0.20026274  0.54017141  1
  O  O11  1  0.29253437  0.70026251  0.54017141  1
  O  O12  1  0.57982375  0.01948012  0.74999984  1
  O  O13  1  0.92017585  0.51947811  0.74999984  1
  O  O14  1  0.20746549  0.20026274  0.95982956  1
  O  O15  1  0.29253437  0.70026251  0.95982956  1
  Pu  Pu16  1  0.99284713  0.04624054  0.24999995  1
  Pu  Pu17  1  0.50715064  0.54624032  0.24999995  1
  Pu  Pu18  1  0.49284909  0.45375746  0.74999984  1
  Pu  Pu19  1  0.00715260  0.95375902  0.74999984  1
