# generated using pymatgen
data_PuMnO3
_symmetry_space_group_name_H-M   'P 1'
_cell_length_a   5.62486116
_cell_length_b   5.73922069
_cell_length_c   8.30271563
_cell_angle_alpha   90.00000000
_cell_angle_beta   90.00000000
_cell_angle_gamma   90.00000000
_symmetry_Int_Tables_number   1
_chemical_formula_structural   PuMnO3
_chemical_formula_sum   'Pu4 Mn4 O12'
_cell_volume   268.03091912
_cell_formula_units_Z   4
loop_
 _symmetry_equiv_pos_site_id
 _symmetry_equiv_pos_as_xyz
  1  'x, y, z'
loop_
 _atom_site_type_symbol
 _atom_site_label
 _atom_site_symmetry_multiplicity
 _atom_site_fract_x
 _atom_site_fract_y
 _atom_site_fract_z
 _atom_site_occupancy
  Mn  Mn0  1  0.00928556  0.03244866  0.25000013  1
  Mn  Mn1  1  0.49071611  0.53244860  0.25000013  1
  Mn  Mn2  1  0.50928368  0.46755128  0.75000039  1
  Mn  Mn3  1  0.99071601  0.96755122  0.75000039  1
  O  O4  1  0.66341726  0.33370036  0.07556805  1
  O  O5  1  0.83658065  0.83370204  0.07556805  1
  O  O6  1  0.13859898  0.39174308  0.25000013  1
  O  O7  1  0.36140270  0.89174476  0.25000013  1
  O  O8  1  0.66341726  0.33370036  0.42443222  1
  O  O9  1  0.83658065  0.83370204  0.42443222  1
  O  O10  1  0.16341914  0.16629784  0.57556831  1
  O  O11  1  0.33658253  0.66629952  0.57556831  1
  O  O12  1  0.63860065  0.10825512  0.75000039  1
  O  O13  1  0.86140082  0.60825854  0.75000039  1
  O  O14  1  0.16341914  0.16629784  0.92443128  1
  O  O15  1  0.33658253  0.66629952  0.92443128  1
  Pu  Pu16  1  0.50000167  0.00000000  0.00000000  1
  Pu  Pu17  1  0.00000000  0.49999994  0.00000000  1
  Pu  Pu18  1  0.50000167  0.00000000  0.50000026  1
  Pu  Pu19  1  0.00000000  0.49999994  0.50000026  1
