# generated using pymatgen
data_TaGaO3
_symmetry_space_group_name_H-M   'P 1'
_cell_length_a   5.62296488
_cell_length_b   5.64290144
_cell_length_c   7.96643227
_cell_angle_alpha   90.00000000
_cell_angle_beta   90.00000000
_cell_angle_gamma   90.00000572
_symmetry_Int_Tables_number   1
_chemical_formula_structural   TaGaO3
_chemical_formula_sum   'Ta4 Ga4 O12'
_cell_volume   252.77359425
_cell_formula_units_Z   4
loop_
 _symmetry_equiv_pos_site_id
 _symmetry_equiv_pos_as_xyz
  1  'x, y, z'
loop_
 _atom_site_type_symbol
 _atom_site_label
 _atom_site_symmetry_multiplicity
 _atom_site_fract_x
 _atom_site_fract_y
 _atom_site_fract_z
 _atom_site_occupancy
  Ga  Ga0  1  0.50028058  0.49939560  0.24999899  1
  Ga  Ga1  1  0.99971551  0.99939545  0.24999899  1
  Ga  Ga2  1  0.00028455  0.00060430  0.74999947  1
  Ga  Ga3  1  0.49971860  0.50060419  0.74999947  1
  O  O4  1  0.74054883  0.25937724  0.00805254  1
  O  O5  1  0.75944992  0.75937711  0.00805379  1
  O  O6  1  0.48394931  0.00017015  0.24999899  1
  O  O7  1  0.01605384  0.50017000  0.24999899  1
  O  O8  1  0.74054883  0.25937724  0.49194795  1
  O  O9  1  0.75944992  0.75937711  0.49194669  1
  O  O10  1  0.24054927  0.24062268  0.50805302  1
  O  O11  1  0.25945035  0.74062433  0.50805177  1
  O  O12  1  0.98394713  0.49983156  0.74999947  1
  O  O13  1  0.51605165  0.99982964  0.74999947  1
  O  O14  1  0.24054927  0.24062268  0.99194718  1
  O  O15  1  0.25945035  0.74062433  0.99194718  1
  Ta  Ta16  1  0.49999957  0.00000000  0.00000000  1
  Ta  Ta17  1  0.00000000  0.49999987  0.00000000  1
  Ta  Ta18  1  0.49999957  0.00000000  0.50000049  1
  Ta  Ta19  1  0.00000000  0.49999987  0.50000049  1
