# generated using pymatgen
data_FeSbO3
_symmetry_space_group_name_H-M   'P 1'
_cell_length_a   5.31250427
_cell_length_b   5.69416846
_cell_length_c   7.66108871
_cell_angle_alpha   90.00000000
_cell_angle_beta   90.00000000
_cell_angle_gamma   90.00000000
_symmetry_Int_Tables_number   1
_chemical_formula_structural   FeSbO3
_chemical_formula_sum   'Fe4 Sb4 O12'
_cell_volume   231.75018774
_cell_formula_units_Z   4
loop_
 _symmetry_equiv_pos_site_id
 _symmetry_equiv_pos_as_xyz
  1  'x, y, z'
loop_
 _atom_site_type_symbol
 _atom_site_label
 _atom_site_symmetry_multiplicity
 _atom_site_fract_x
 _atom_site_fract_y
 _atom_site_fract_z
 _atom_site_occupancy
  Fe  Fe0  1  0.49999960  0.00000000  0.00000000  1
  Fe  Fe1  1  0.00000000  0.49999926  0.00000000  1
  Fe  Fe2  1  0.49999960  0.00000000  0.49999943  1
  Fe  Fe3  1  0.00000000  0.49999926  0.49999943  1
  O  O4  1  0.66927381  0.31285868  0.05286846  1
  O  O5  1  0.83072686  0.81285793  0.05286846  1
  O  O6  1  0.12557543  0.46920986  0.24999972  1
  O  O7  1  0.37442417  0.96920912  0.24999972  1
  O  O8  1  0.66927381  0.31285868  0.44713227  1
  O  O9  1  0.83072686  0.81285793  0.44713227  1
  O  O10  1  0.16927422  0.18714234  0.55286790  1
  O  O11  1  0.33072726  0.68714160  0.55286790  1
  O  O12  1  0.62557503  0.03079115  0.75000045  1
  O  O13  1  0.87442377  0.53079041  0.75000045  1
  O  O14  1  0.16927422  0.18714234  0.94713170  1
  O  O15  1  0.33072726  0.68714160  0.94713170  1
  Sb  Sb16  1  0.98903826  0.03909965  0.24999972  1
  Sb  Sb17  1  0.51096241  0.53909891  0.24999972  1
  Sb  Sb18  1  0.48903867  0.46090136  0.75000045  1
  Sb  Sb19  1  0.01096093  0.96090062  0.75000045  1
