# generated using pymatgen
data_TaGeO3
_symmetry_space_group_name_H-M   'P 1'
_cell_length_a   5.34104362
_cell_length_b   5.85529759
_cell_length_c   7.74159754
_cell_angle_alpha   90.00000000
_cell_angle_beta   90.00000000
_cell_angle_gamma   90.00000000
_symmetry_Int_Tables_number   1
_chemical_formula_structural   TaGeO3
_chemical_formula_sum   'Ta4 Ge4 O12'
_cell_volume   242.10607510
_cell_formula_units_Z   4
loop_
 _symmetry_equiv_pos_site_id
 _symmetry_equiv_pos_as_xyz
  1  'x, y, z'
loop_
 _atom_site_type_symbol
 _atom_site_label
 _atom_site_symmetry_multiplicity
 _atom_site_fract_x
 _atom_site_fract_y
 _atom_site_fract_z
 _atom_site_occupancy
  Ge  Ge0  1  0.96003710  0.00069680  0.24999879  1
  Ge  Ge1  1  0.53996189  0.50069530  0.24999879  1
  Ge  Ge2  1  0.46003556  0.49930340  0.74999895  1
  Ge  Ge3  1  0.03996223  0.99930361  0.74999895  1
  O  O4  1  0.68920613  0.29924525  0.04130672  1
  O  O5  1  0.81079473  0.79924546  0.04130672  1
  O  O6  1  0.09996174  0.47867251  0.24999879  1
  O  O7  1  0.40003792  0.97867272  0.24999879  1
  O  O8  1  0.68920613  0.29924525  0.45869344  1
  O  O9  1  0.81079473  0.79924546  0.45869344  1
  O  O10  1  0.18920647  0.20075325  0.54130688  1
  O  O11  1  0.31079507  0.70075516  0.54130688  1
  O  O12  1  0.59996327  0.02132769  0.74999895  1
  O  O13  1  0.90003759  0.52132790  0.74999895  1
  O  O14  1  0.18920647  0.20075325  0.95869360  1
  O  O15  1  0.31079507  0.70075516  0.95869360  1
  Ta  Ta16  1  0.49999966  0.00000000  0.00000000  1
  Ta  Ta17  1  0.00000000  0.50000021  0.00000000  1
  Ta  Ta18  1  0.49999966  0.00000000  0.50000016  1
  Ta  Ta19  1  0.00000000  0.50000021  0.50000016  1
