# generated using pymatgen
data_PaCdO3
_symmetry_space_group_name_H-M   'P 1'
_cell_length_a   4.35931179
_cell_length_b   4.35931179
_cell_length_c   4.36740377
_cell_angle_alpha   90.00000000
_cell_angle_beta   90.00000000
_cell_angle_gamma   90.00000000
_symmetry_Int_Tables_number   1
_chemical_formula_structural   PaCdO3
_chemical_formula_sum   'Pa1 Cd1 O3'
_cell_volume   82.99639094
_cell_formula_units_Z   1
loop_
 _symmetry_equiv_pos_site_id
 _symmetry_equiv_pos_as_xyz
  1  'x, y, z'
loop_
 _atom_site_type_symbol
 _atom_site_label
 _atom_site_symmetry_multiplicity
 _atom_site_fract_x
 _atom_site_fract_y
 _atom_site_fract_z
 _atom_site_occupancy
  Cd  Cd0  1  0.00000000  0.00000000  0.99867885  1
  O  O1  1  0.50000094  0.50000094  0.07797768  1
  O  O2  1  0.50000094  0.00000000  0.62550663  1
  O  O3  1  0.00000000  0.50000094  0.62550663  1
  Pa  Pa4  1  0.50000094  0.50000094  0.57233316  1
