# generated using pymatgen
data_PaCdO3
_symmetry_space_group_name_H-M   'P 1'
_cell_length_a   5.88413361
_cell_length_b   6.13204470
_cell_length_c   8.50470988
_cell_angle_alpha   90.00000000
_cell_angle_beta   90.00000000
_cell_angle_gamma   90.00000000
_symmetry_Int_Tables_number   1
_chemical_formula_structural   PaCdO3
_chemical_formula_sum   'Pa4 Cd4 O12'
_cell_volume   306.86498841
_cell_formula_units_Z   4
loop_
 _symmetry_equiv_pos_site_id
 _symmetry_equiv_pos_as_xyz
  1  'x, y, z'
loop_
 _atom_site_type_symbol
 _atom_site_label
 _atom_site_symmetry_multiplicity
 _atom_site_fract_x
 _atom_site_fract_y
 _atom_site_fract_z
 _atom_site_occupancy
  Cd  Cd0  1  0.98666352  0.03493288  0.24999912  1
  Cd  Cd1  1  0.51333641  0.53493413  0.24999912  1
  Cd  Cd2  1  0.48666468  0.46506836  0.74999972  1
  Cd  Cd3  1  0.01333756  0.96506635  0.74999972  1
  O  O4  1  0.67569506  0.31424592  0.03546153  1
  O  O5  1  0.82430487  0.81424553  0.03546153  1
  O  O6  1  0.39118588  0.00531960  0.24999912  1
  O  O7  1  0.10881296  0.50531921  0.24999912  1
  O  O8  1  0.67569506  0.31424592  0.46453789  1
  O  O9  1  0.82430487  0.81424553  0.46453789  1
  O  O10  1  0.17569451  0.18575370  0.53546212  1
  O  O11  1  0.32430433  0.68575495  0.53546212  1
  O  O12  1  0.89118642  0.49468165  0.74999972  1
  O  O13  1  0.60881180  0.99468127  0.74999972  1
  O  O14  1  0.17569451  0.18575370  0.96453849  1
  O  O15  1  0.32430433  0.68575495  0.96453849  1
  Pa  Pa16  1  0.49999884  0.00000000  0.00000000  1
  Pa  Pa17  1  0.00000000  0.50000125  0.00000000  1
  Pa  Pa18  1  0.49999884  0.00000000  0.50000060  1
  Pa  Pa19  1  0.00000000  0.50000125  0.50000060  1
