# generated using pymatgen
data_PmNiO3
_symmetry_space_group_name_H-M   'P 1'
_cell_length_a   5.30684738
_cell_length_b   5.47594330
_cell_length_c   7.57015789
_cell_angle_alpha   90.00000000
_cell_angle_beta   90.00000000
_cell_angle_gamma   90.00000000
_symmetry_Int_Tables_number   1
_chemical_formula_structural   PmNiO3
_chemical_formula_sum   'Pm4 Ni4 O12'
_cell_volume   219.98875289
_cell_formula_units_Z   4
loop_
 _symmetry_equiv_pos_site_id
 _symmetry_equiv_pos_as_xyz
  1  'x, y, z'
loop_
 _atom_site_type_symbol
 _atom_site_label
 _atom_site_symmetry_multiplicity
 _atom_site_fract_x
 _atom_site_fract_y
 _atom_site_fract_z
 _atom_site_occupancy
  Ni  Ni0  1  0.49999930  0.00000000  0.00000000  1
  Ni  Ni1  1  0.00000000  0.49999970  0.00000000  1
  Ni  Ni2  1  0.49999930  0.00000000  0.50000014  1
  Ni  Ni3  1  0.00000000  0.49999970  0.50000014  1
  O  O4  1  0.70774977  0.29425798  0.04222501  1
  O  O5  1  0.79224815  0.79425768  0.04222501  1
  O  O6  1  0.07899040  0.48656457  0.25000007  1
  O  O7  1  0.42101079  0.98656427  0.25000007  1
  O  O8  1  0.70774977  0.29425798  0.45777513  1
  O  O9  1  0.79224815  0.79425768  0.45777513  1
  O  O10  1  0.20775046  0.20574172  0.54222515  1
  O  O11  1  0.29225073  0.70574325  0.54222515  1
  O  O12  1  0.57898971  0.01343695  0.74999889  1
  O  O13  1  0.92101009  0.51343665  0.74999889  1
  O  O14  1  0.20775046  0.20574172  0.95777527  1
  O  O15  1  0.29225073  0.70574325  0.95777527  1
  Pm  Pm16  1  0.98732065  0.05755355  0.25000007  1
  Pm  Pm17  1  0.51268103  0.55755508  0.25000007  1
  Pm  Pm18  1  0.48731946  0.44244614  0.74999889  1
  Pm  Pm19  1  0.01267984  0.94244584  0.74999889  1
