# generated using pymatgen
data_YbCoO3
_symmetry_space_group_name_H-M   'P 1'
_cell_length_a   3.68127590
_cell_length_b   3.68127590
_cell_length_c   3.62513847
_cell_angle_alpha   90.00000000
_cell_angle_beta   90.00000000
_cell_angle_gamma   90.00000000
_symmetry_Int_Tables_number   1
_chemical_formula_structural   YbCoO3
_chemical_formula_sum   'Yb1 Co1 O3'
_cell_volume   49.12712354
_cell_formula_units_Z   1
loop_
 _symmetry_equiv_pos_site_id
 _symmetry_equiv_pos_as_xyz
  1  'x, y, z'
loop_
 _atom_site_type_symbol
 _atom_site_label
 _atom_site_symmetry_multiplicity
 _atom_site_fract_x
 _atom_site_fract_y
 _atom_site_fract_z
 _atom_site_occupancy
  Co  Co0  1  0.50000056  0.50000056  0.57792275  1
  O  O1  1  0.50000056  0.50000056  0.08073347  1
  O  O2  1  0.50000056  0.00000000  0.58276670  1
  O  O3  1  0.00000000  0.50000056  0.58276670  1
  Yb  Yb4  1  0.00000000  0.00000000  0.07580676  1
