# generated using pymatgen
data_ThVO3
_symmetry_space_group_name_H-M   'P 1'
_cell_length_a   5.47639878
_cell_length_b   6.01509434
_cell_length_c   7.86910411
_cell_angle_alpha   90.00000000
_cell_angle_beta   90.00000000
_cell_angle_gamma   90.00000000
_symmetry_Int_Tables_number   1
_chemical_formula_structural   ThVO3
_chemical_formula_sum   'Th4 V4 O12'
_cell_volume   259.21659373
_cell_formula_units_Z   4
loop_
 _symmetry_equiv_pos_site_id
 _symmetry_equiv_pos_as_xyz
  1  'x, y, z'
loop_
 _atom_site_type_symbol
 _atom_site_label
 _atom_site_symmetry_multiplicity
 _atom_site_fract_x
 _atom_site_fract_y
 _atom_site_fract_z
 _atom_site_occupancy
  O  O0  1  0.67877088  0.31129354  0.06160422  1
  O  O1  1  0.82122946  0.81129401  0.06160422  1
  O  O2  1  0.13034843  0.44952911  0.25000050  1
  O  O3  1  0.36965350  0.94952792  0.25000050  1
  O  O4  1  0.67877088  0.31129354  0.43839552  1
  O  O5  1  0.82122946  0.81129401  0.43839552  1
  O  O6  1  0.17877259  0.18870527  0.56160523  1
  O  O7  1  0.32122935  0.68870574  0.56160523  1
  O  O8  1  0.63034672  0.05047136  0.75000024  1
  O  O9  1  0.86965362  0.55047183  0.75000024  1
  O  O10  1  0.17877259  0.18870527  0.93839526  1
  O  O11  1  0.32122935  0.68870574  0.93839526  1
  Th  Th12  1  0.97547498  0.08216995  0.25000050  1
  Th  Th13  1  0.52452353  0.58216876  0.25000050  1
  Th  Th14  1  0.47547670  0.41783052  0.75000024  1
  Th  Th15  1  0.02452524  0.91783099  0.75000024  1
  V  V16  1  0.50000011  0.00000000  0.00000000  1
  V  V17  1  0.00000000  0.49999881  0.00000000  1
  V  V18  1  0.50000011  0.00000000  0.49999974  1
  V  V19  1  0.00000000  0.49999881  0.49999974  1
