# generated using pymatgen
data_SrVO3
_symmetry_space_group_name_H-M   'P 1'
_cell_length_a   5.43711640
_cell_length_b   5.44129975
_cell_length_c   7.90433580
_cell_angle_alpha   90.00000000
_cell_angle_beta   90.00000000
_cell_angle_gamma   90.00000000
_symmetry_Int_Tables_number   1
_chemical_formula_structural   SrVO3
_chemical_formula_sum   'Sr4 V4 O12'
_cell_volume   233.84961751
_cell_formula_units_Z   4
loop_
 _symmetry_equiv_pos_site_id
 _symmetry_equiv_pos_as_xyz
  1  'x, y, z'
loop_
 _atom_site_type_symbol
 _atom_site_label
 _atom_site_symmetry_multiplicity
 _atom_site_fract_x
 _atom_site_fract_y
 _atom_site_fract_z
 _atom_site_occupancy
  O  O0  1  0.74492244  0.27010458  0.00986927  1
  O  O1  1  0.75507856  0.77010461  0.00986927  1
  O  O2  1  0.47673432  0.00174407  0.25000077  1
  O  O3  1  0.02326601  0.50174409  0.25000077  1
  O  O4  1  0.74492244  0.27010458  0.49013226  1
  O  O5  1  0.75507856  0.77010461  0.49013226  1
  O  O6  1  0.24492211  0.22989544  0.50986827  1
  O  O7  1  0.25507822  0.72989546  0.50986827  1
  O  O8  1  0.97673465  0.49825412  0.74999977  1
  O  O9  1  0.52326634  0.99825598  0.74999977  1
  O  O10  1  0.24492211  0.22989544  0.99013126  1
  O  O11  1  0.25507822  0.72989546  0.99013126  1
  Sr  Sr12  1  0.99969653  0.00507783  0.25000077  1
  Sr  Sr13  1  0.50030380  0.50507785  0.25000077  1
  Sr  Sr14  1  0.49969502  0.49492035  0.74999977  1
  Sr  Sr15  1  0.00030347  0.99492038  0.74999977  1
  V  V16  1  0.50000033  0.00000000  0.00000000  1
  V  V17  1  0.00000000  0.50000002  0.00000000  1
  V  V18  1  0.50000033  0.00000000  0.49999900  1
  V  V19  1  0.00000000  0.50000002  0.49999900  1
