# generated using pymatgen
data_YHfO3
_symmetry_space_group_name_H-M   'P 1'
_cell_length_a   7.18525800
_cell_length_b   5.10485900
_cell_length_c   5.07597000
_cell_angle_alpha   90.00000000
_cell_angle_beta   90.00000000
_cell_angle_gamma   90.00000000
_symmetry_Int_Tables_number   1
_chemical_formula_structural   YHfO3
_chemical_formula_sum   'Y4 Hf4 O12'
_cell_volume   186.18520385
_cell_formula_units_Z   4
loop_
 _symmetry_equiv_pos_site_id
 _symmetry_equiv_pos_as_xyz
  1  'x, y, z'
loop_
 _atom_site_type_symbol
 _atom_site_label
 _atom_site_symmetry_multiplicity
 _atom_site_fract_x
 _atom_site_fract_y
 _atom_site_fract_z
 _atom_site_occupancy
  Hf  Hf0  1  0.75000000  0.74999965  0.00000000  1
  Hf  Hf1  1  0.25000000  0.74999965  0.00000000  1
  Hf  Hf2  1  0.75000000  0.25000035  0.50000000  1
  Hf  Hf3  1  0.25000000  0.25000035  0.50000000  1
  O  O4  1  0.00000000  0.76498185  0.06892029  1
  O  O5  1  0.71398532  0.03097461  0.21898887  1
  O  O6  1  0.28601468  0.03097461  0.21898887  1
  O  O7  1  0.71398532  0.53097532  0.28101105  1
  O  O8  1  0.28601468  0.53097532  0.28101105  1
  O  O9  1  0.00000000  0.26498255  0.43108136  1
  O  O10  1  0.50000000  0.23501815  0.56892029  1
  O  O11  1  0.21398532  0.96902539  0.71898887  1
  O  O12  1  0.78601468  0.96902539  0.71898887  1
  O  O13  1  0.21398532  0.46902468  0.78101105  1
  O  O14  1  0.78601468  0.46902468  0.78101105  1
  O  O15  1  0.50000000  0.73501745  0.93108136  1
  Y  Y16  1  0.50000000  0.27597744  0.00597767  1
  Y  Y17  1  0.50000000  0.77597674  0.49402225  1
  Y  Y18  1  0.00000000  0.72402256  0.50597767  1
  Y  Y19  1  0.00000000  0.22402326  0.99402225  1
