# generated using pymatgen
data_GaHgO3
_symmetry_space_group_name_H-M   'P 1'
_cell_length_a   5.29681031
_cell_length_b   5.49625853
_cell_length_c   7.82410247
_cell_angle_alpha   90.00000000
_cell_angle_beta   90.00000000
_cell_angle_gamma   90.00000000
_symmetry_Int_Tables_number   1
_chemical_formula_structural   GaHgO3
_chemical_formula_sum   'Ga4 Hg4 O12'
_cell_volume   227.78026954
_cell_formula_units_Z   4
loop_
 _symmetry_equiv_pos_site_id
 _symmetry_equiv_pos_as_xyz
  1  'x, y, z'
loop_
 _atom_site_type_symbol
 _atom_site_label
 _atom_site_symmetry_multiplicity
 _atom_site_fract_x
 _atom_site_fract_y
 _atom_site_fract_z
 _atom_site_occupancy
  Ga  Ga0  1  0.49999903  0.00000000  0.00000000  1
  Ga  Ga1  1  0.00000000  0.50000013  0.00000000  1
  Ga  Ga2  1  0.49999903  0.00000000  0.49999984  1
  Ga  Ga3  1  0.00000000  0.50000013  0.49999984  1
  Hg  Hg4  1  0.98071664  0.05399309  0.24999928  1
  Hg  Hg5  1  0.51928233  0.55399505  0.24999928  1
  Hg  Hg6  1  0.48071761  0.44600522  0.74999912  1
  Hg  Hg7  1  0.01928330  0.94600536  0.74999912  1
  O  O8  1  0.71230793  0.28232660  0.06103448  1
  O  O9  1  0.78769292  0.78232674  0.06103448  1
  O  O10  1  0.11386287  0.45111233  0.24999928  1
  O  O11  1  0.38613616  0.95111429  0.24999928  1
  O  O12  1  0.71230793  0.28232660  0.43896537  1
  O  O13  1  0.78769292  0.78232674  0.43896537  1
  O  O14  1  0.21230513  0.21767171  0.56103432  1
  O  O15  1  0.28769390  0.71767366  0.56103432  1
  O  O16  1  0.61386567  0.04888780  0.74999912  1
  O  O17  1  0.88613708  0.54888794  0.74999912  1
  O  O18  1  0.21230513  0.21767171  0.93896521  1
  O  O19  1  0.28769390  0.71767366  0.93896521  1
