# generated using pymatgen
data_EuZnO3
_symmetry_space_group_name_H-M   'P 1'
_cell_length_a   5.54733088
_cell_length_b   5.30710444
_cell_length_c   7.65403590
_cell_angle_alpha   90.00000000
_cell_angle_beta   90.00000000
_cell_angle_gamma   90.00000000
_symmetry_Int_Tables_number   1
_chemical_formula_structural   EuZnO3
_chemical_formula_sum   'Eu4 Zn4 O12'
_cell_volume   225.33684023
_cell_formula_units_Z   4
loop_
 _symmetry_equiv_pos_site_id
 _symmetry_equiv_pos_as_xyz
  1  'x, y, z'
loop_
 _atom_site_type_symbol
 _atom_site_label
 _atom_site_symmetry_multiplicity
 _atom_site_fract_x
 _atom_site_fract_y
 _atom_site_fract_z
 _atom_site_occupancy
  Eu  Eu0  1  0.99891283  0.02129975  0.25000013  1
  Eu  Eu1  1  0.50108783  0.52129745  0.25000013  1
  Eu  Eu2  1  0.49891201  0.47870172  0.74999910  1
  Eu  Eu3  1  0.00108701  0.97870130  0.74999910  1
  O  O4  1  0.72887846  0.27164907  0.03304531  1
  O  O5  1  0.77112040  0.77164865  0.03304531  1
  O  O6  1  0.43681368  0.00395319  0.25000013  1
  O  O7  1  0.06318714  0.50395089  0.25000013  1
  O  O8  1  0.72887846  0.27164907  0.46695496  1
  O  O9  1  0.77112040  0.77164865  0.46695496  1
  O  O10  1  0.22887944  0.22835239  0.53304427  1
  O  O11  1  0.27112138  0.72835197  0.53304427  1
  O  O12  1  0.93681450  0.49604827  0.74999910  1
  O  O13  1  0.56318616  0.99604786  0.74999910  1
  O  O14  1  0.22887944  0.22835239  0.96695392  1
  O  O15  1  0.27112138  0.72835197  0.96695392  1
  Zn  Zn16  1  0.50000082  0.00000000  0.00000000  1
  Zn  Zn17  1  0.00000000  0.49999958  0.00000000  1
  Zn  Zn18  1  0.50000082  0.00000000  0.50000027  1
  Zn  Zn19  1  0.00000000  0.49999958  0.50000027  1
