# generated using pymatgen
data_ZnCdO3
_symmetry_space_group_name_H-M   'P 1'
_cell_length_a   5.29023965
_cell_length_b   5.52286489
_cell_length_c   7.55966227
_cell_angle_alpha   90.00000000
_cell_angle_beta   90.00000000
_cell_angle_gamma   90.00000000
_symmetry_Int_Tables_number   1
_chemical_formula_structural   ZnCdO3
_chemical_formula_sum   'Zn4 Cd4 O12'
_cell_volume   220.87276015
_cell_formula_units_Z   4
loop_
 _symmetry_equiv_pos_site_id
 _symmetry_equiv_pos_as_xyz
  1  'x, y, z'
loop_
 _atom_site_type_symbol
 _atom_site_label
 _atom_site_symmetry_multiplicity
 _atom_site_fract_x
 _atom_site_fract_y
 _atom_site_fract_z
 _atom_site_occupancy
  Cd  Cd0  1  0.98250370  0.05529377  0.25000059  1
  Cd  Cd1  1  0.51749641  0.55529332  0.25000059  1
  Cd  Cd2  1  0.48250555  0.44470579  0.74999911  1
  Cd  Cd3  1  0.01749448  0.94470535  0.74999911  1
  O  O4  1  0.69539383  0.29413539  0.05820895  1
  O  O5  1  0.80460627  0.79413676  0.05820895  1
  O  O6  1  0.11192121  0.44820579  0.25000059  1
  O  O7  1  0.38807883  0.94820534  0.25000059  1
  O  O8  1  0.69539383  0.29413539  0.44178958  1
  O  O9  1  0.80460627  0.79413676  0.44178958  1
  O  O10  1  0.19539379  0.20586417  0.55820880  1
  O  O11  1  0.30460624  0.70586192  0.55820880  1
  O  O12  1  0.61192124  0.05179558  0.74999911  1
  O  O13  1  0.88807886  0.55179514  0.74999911  1
  O  O14  1  0.19539379  0.20586417  0.94179075  1
  O  O15  1  0.30460624  0.70586192  0.94179075  1
  Zn  Zn16  1  0.50000003  0.00000000  0.00000000  1
  Zn  Zn17  1  0.00000000  0.49999956  0.00000000  1
  Zn  Zn18  1  0.50000003  0.00000000  0.49999985  1
  Zn  Zn19  1  0.00000000  0.49999956  0.49999985  1
