# generated using pymatgen
data_IrPbO3
_symmetry_space_group_name_H-M   'P 1'
_cell_length_a   5.53843443
_cell_length_b   5.72143081
_cell_length_c   7.87125529
_cell_angle_alpha   90.00000000
_cell_angle_beta   90.00000000
_cell_angle_gamma   90.00000000
_symmetry_Int_Tables_number   1
_chemical_formula_structural   IrPbO3
_chemical_formula_sum   'Ir4 Pb4 O12'
_cell_volume   249.42252215
_cell_formula_units_Z   4
loop_
 _symmetry_equiv_pos_site_id
 _symmetry_equiv_pos_as_xyz
  1  'x, y, z'
loop_
 _atom_site_type_symbol
 _atom_site_label
 _atom_site_symmetry_multiplicity
 _atom_site_fract_x
 _atom_site_fract_y
 _atom_site_fract_z
 _atom_site_occupancy
  Ir  Ir0  1  0.50000050  0.00000000  0.00000000  1
  Ir  Ir1  1  0.00000000  0.50000080  0.00000000  1
  Ir  Ir2  1  0.50000050  0.00000000  0.50000030  1
  Ir  Ir3  1  0.00000000  0.50000080  0.50000030  1
  O  O4  1  0.70308677  0.29537017  0.04224104  1
  O  O5  1  0.79691293  0.79537098  0.04224104  1
  O  O6  1  0.08667612  0.46236686  0.24999951  1
  O  O7  1  0.41332258  0.96236766  0.24999951  1
  O  O8  1  0.70308677  0.29537017  0.45775926  1
  O  O9  1  0.79691293  0.79537098  0.45775926  1
  O  O10  1  0.20308808  0.20462888  0.54224007  1
  O  O11  1  0.29691243  0.70462969  0.54224007  1
  O  O12  1  0.58667662  0.03763220  0.74999981  1
  O  O13  1  0.91332308  0.53763300  0.74999981  1
  O  O14  1  0.20308808  0.20462888  0.95775956  1
  O  O15  1  0.29691243  0.70462969  0.95775956  1
  Pb  Pb16  1  0.99090277  0.03957576  0.24999951  1
  Pb  Pb17  1  0.50909694  0.53957657  0.24999951  1
  Pb  Pb18  1  0.49090226  0.46042329  0.74999981  1
  Pb  Pb19  1  0.00909824  0.96042409  0.74999981  1
