# generated using pymatgen
data_CeScO3
_symmetry_space_group_name_H-M   'P 1'
_cell_length_a   5.63649200
_cell_length_b   5.83766100
_cell_length_c   8.06700300
_cell_angle_alpha   90.00000000
_cell_angle_beta   90.00000000
_cell_angle_gamma   90.00000000
_symmetry_Int_Tables_number   1
_chemical_formula_structural   CeScO3
_chemical_formula_sum   'Ce4 Sc4 O12'
_cell_volume   265.43609819
_cell_formula_units_Z   4
loop_
 _symmetry_equiv_pos_site_id
 _symmetry_equiv_pos_as_xyz
  1  'x, y, z'
loop_
 _atom_site_type_symbol
 _atom_site_label
 _atom_site_symmetry_multiplicity
 _atom_site_fract_x
 _atom_site_fract_y
 _atom_site_fract_z
 _atom_site_occupancy
  Ce  Ce0  1  0.98522000  0.05804500  0.25000000  1
  Ce  Ce1  1  0.48522000  0.44195500  0.75000000  1
  Ce  Ce2  1  0.51478000  0.55804500  0.25000000  1
  Ce  Ce3  1  0.01478000  0.94195500  0.75000000  1
  Sc  Sc4  1  0.50000000  0.00000000  0.00000000  1
  Sc  Sc5  1  0.50000000  0.00000000  0.50000000  1
  Sc  Sc6  1  0.00000000  0.50000000  0.00000000  1
  Sc  Sc7  1  0.00000000  0.50000000  0.50000000  1
  O  O8  1  0.61445900  0.04289000  0.75000000  1
  O  O9  1  0.19530000  0.19671600  0.94049500  1
  O  O10  1  0.19530000  0.19671600  0.55950500  1
  O  O11  1  0.69530000  0.30328400  0.05950500  1
  O  O12  1  0.69530000  0.30328400  0.44049500  1
  O  O13  1  0.11445900  0.45711000  0.25000000  1
  O  O14  1  0.88554100  0.54289000  0.75000000  1
  O  O15  1  0.30470000  0.69671600  0.55950500  1
  O  O16  1  0.30470000  0.69671600  0.94049500  1
  O  O17  1  0.80470000  0.80328400  0.44049500  1
  O  O18  1  0.80470000  0.80328400  0.05950500  1
  O  O19  1  0.38554100  0.95711000  0.25000000  1
