# generated using pymatgen
data_HfAgO3
_symmetry_space_group_name_H-M   'P 1'
_cell_length_a   5.37550611
_cell_length_b   5.73485433
_cell_length_c   7.95065048
_cell_angle_alpha   90.00000000
_cell_angle_beta   90.00000000
_cell_angle_gamma   90.00000000
_symmetry_Int_Tables_number   1
_chemical_formula_structural   HfAgO3
_chemical_formula_sum   'Hf4 Ag4 O12'
_cell_volume   245.10062140
_cell_formula_units_Z   4
loop_
 _symmetry_equiv_pos_site_id
 _symmetry_equiv_pos_as_xyz
  1  'x, y, z'
loop_
 _atom_site_type_symbol
 _atom_site_label
 _atom_site_symmetry_multiplicity
 _atom_site_fract_x
 _atom_site_fract_y
 _atom_site_fract_z
 _atom_site_occupancy
  Ag  Ag0  1  0.98107227  0.07702375  0.24999967  1
  Ag  Ag1  1  0.51892788  0.57702425  0.24999967  1
  Ag  Ag2  1  0.48107284  0.42297674  0.75000027  1
  Ag  Ag3  1  0.01892659  0.92297724  0.75000027  1
  Hf  Hf4  1  0.49999943  0.00000000  0.00000000  1
  Hf  Hf5  1  0.00000000  0.50000049  0.00000000  1
  Hf  Hf6  1  0.49999943  0.00000000  0.49999934  1
  Hf  Hf7  1  0.00000000  0.50000049  0.49999934  1
  O  O8  1  0.69929229  0.29417312  0.06613924  1
  O  O9  1  0.80070786  0.79417187  0.06613924  1
  O  O10  1  0.12940177  0.44678554  0.24999967  1
  O  O11  1  0.37059766  0.94678429  0.24999967  1
  O  O12  1  0.69929229  0.29417312  0.43386010  1
  O  O13  1  0.80070786  0.79417187  0.43386010  1
  O  O14  1  0.19929286  0.20582737  0.56613984  1
  O  O15  1  0.30070657  0.70582787  0.56613984  1
  O  O16  1  0.62939934  0.05321495  0.75000027  1
  O  O17  1  0.87059895  0.55321545  0.75000027  1
  O  O18  1  0.19929286  0.20582737  0.93385944  1
  O  O19  1  0.30070657  0.70582787  0.93385944  1
