# generated using pymatgen
data_ScCdO3
_symmetry_space_group_name_H-M   'P 1'
_cell_length_a   5.45956789
_cell_length_b   5.70761224
_cell_length_c   7.81067325
_cell_angle_alpha   90.00000000
_cell_angle_beta   90.00000000
_cell_angle_gamma   90.00000000
_symmetry_Int_Tables_number   1
_chemical_formula_structural   ScCdO3
_chemical_formula_sum   'Sc4 Cd4 O12'
_cell_volume   243.38914341
_cell_formula_units_Z   4
loop_
 _symmetry_equiv_pos_site_id
 _symmetry_equiv_pos_as_xyz
  1  'x, y, z'
loop_
 _atom_site_type_symbol
 _atom_site_label
 _atom_site_symmetry_multiplicity
 _atom_site_fract_x
 _atom_site_fract_y
 _atom_site_fract_z
 _atom_site_occupancy
  Cd  Cd0  1  0.97967643  0.06103078  0.25000022  1
  Cd  Cd1  1  0.52032323  0.56102970  0.25000022  1
  Cd  Cd2  1  0.47967716  0.43896990  0.74999937  1
  Cd  Cd3  1  0.02032395  0.93897058  0.74999937  1
  O  O4  1  0.69522535  0.29978210  0.06982369  1
  O  O5  1  0.80477614  0.79978278  0.06982369  1
  O  O6  1  0.13122650  0.43805358  0.25000022  1
  O  O7  1  0.36877461  0.93805426  0.25000022  1
  O  O8  1  0.69522535  0.29978210  0.43017675  1
  O  O9  1  0.80477614  0.79978278  0.43017675  1
  O  O10  1  0.19522424  0.20021682  0.56982284  1
  O  O11  1  0.30477504  0.70021750  0.56982284  1
  O  O12  1  0.63122578  0.06194534  0.74999937  1
  O  O13  1  0.86877388  0.56194602  0.74999937  1
  O  O14  1  0.19522424  0.20021682  0.93017590  1
  O  O15  1  0.30477504  0.70021750  0.93017590  1
  Sc  Sc16  1  0.49999928  0.00000000  0.00000000  1
  Sc  Sc17  1  0.00000000  0.50000068  0.00000000  1
  Sc  Sc18  1  0.49999928  0.00000000  0.50000043  1
  Sc  Sc19  1  0.00000000  0.50000068  0.50000043  1
