# generated using pymatgen
data_NpScO3
_symmetry_space_group_name_H-M   'P 1'
_cell_length_a   5.58747332
_cell_length_b   5.81986676
_cell_length_c   8.00162847
_cell_angle_alpha   90.00000000
_cell_angle_beta   90.00000000
_cell_angle_gamma   90.00000000
_symmetry_Int_Tables_number   1
_chemical_formula_structural   NpScO3
_chemical_formula_sum   'Np4 Sc4 O12'
_cell_volume   260.19975702
_cell_formula_units_Z   4
loop_
 _symmetry_equiv_pos_site_id
 _symmetry_equiv_pos_as_xyz
  1  'x, y, z'
loop_
 _atom_site_type_symbol
 _atom_site_label
 _atom_site_symmetry_multiplicity
 _atom_site_fract_x
 _atom_site_fract_y
 _atom_site_fract_z
 _atom_site_occupancy
  Np  Np0  1  0.98805125  0.05410089  0.25000036  1
  Np  Np1  1  0.51194875  0.55410203  0.25000036  1
  Np  Np2  1  0.48805244  0.44589681  0.74999983  1
  Np  Np3  1  0.01194816  0.94589794  0.74999983  1
  O  O4  1  0.69452502  0.30375094  0.05214689  1
  O  O5  1  0.80547499  0.80375036  0.05214689  1
  O  O6  1  0.10204612  0.46581994  0.25000036  1
  O  O7  1  0.39795447  0.96581936  0.25000036  1
  O  O8  1  0.69452502  0.30375094  0.44785259  1
  O  O9  1  0.80547499  0.80375036  0.44785259  1
  O  O10  1  0.19452442  0.19624848  0.55214761  1
  O  O11  1  0.30547618  0.69624962  0.55214761  1
  O  O12  1  0.60204672  0.03417948  0.74999983  1
  O  O13  1  0.89795149  0.53417890  0.74999983  1
  O  O14  1  0.19452442  0.19624848  0.94785331  1
  O  O15  1  0.30547618  0.69624962  0.94785331  1
  Sc  Sc16  1  0.50000060  0.00000000  0.00000000  1
  Sc  Sc17  1  0.00000000  0.50000114  0.00000000  1
  Sc  Sc18  1  0.50000060  0.00000000  0.49999947  1
  Sc  Sc19  1  0.00000000  0.50000114  0.49999947  1
