# generated using pymatgen
data_CdSbO3
_symmetry_space_group_name_H-M   'P 1'
_cell_length_a   5.60044713
_cell_length_b   5.76708978
_cell_length_c   8.09513591
_cell_angle_alpha   90.00000000
_cell_angle_beta   90.00000000
_cell_angle_gamma   90.00000000
_symmetry_Int_Tables_number   1
_chemical_formula_structural   CdSbO3
_chemical_formula_sum   'Cd4 Sb4 O12'
_cell_volume   261.45897761
_cell_formula_units_Z   4
loop_
 _symmetry_equiv_pos_site_id
 _symmetry_equiv_pos_as_xyz
  1  'x, y, z'
loop_
 _atom_site_type_symbol
 _atom_site_label
 _atom_site_symmetry_multiplicity
 _atom_site_fract_x
 _atom_site_fract_y
 _atom_site_fract_z
 _atom_site_occupancy
  Cd  Cd0  1  0.98773363  0.04800341  0.24999951  1
  Cd  Cd1  1  0.51226624  0.54800257  0.24999951  1
  Cd  Cd2  1  0.48773427  0.45199747  0.74999976  1
  Cd  Cd3  1  0.01226509  0.95199662  0.74999976  1
  O  O4  1  0.69107875  0.30503080  0.06379139  1
  O  O5  1  0.80892113  0.80502995  0.06379139  1
  O  O6  1  0.11977079  0.43636914  0.24999951  1
  O  O7  1  0.38022857  0.93637003  0.24999951  1
  O  O8  1  0.69107875  0.30503080  0.43620762  1
  O  O9  1  0.80892113  0.80502995  0.43620762  1
  O  O10  1  0.19107939  0.19497009  0.56379165  1
  O  O11  1  0.30891998  0.69496924  0.56379165  1
  O  O12  1  0.61977016  0.06363001  0.74999976  1
  O  O13  1  0.88022972  0.56363090  0.74999976  1
  O  O14  1  0.19107939  0.19497009  0.93620788  1
  O  O15  1  0.30891998  0.69496924  0.93620788  1
  Sb  Sb16  1  0.49999936  0.00000000  0.00000000  1
  Sb  Sb17  1  0.00000000  0.49999915  0.00000000  1
  Sb  Sb18  1  0.49999936  0.00000000  0.50000025  1
  Sb  Sb19  1  0.00000000  0.49999915  0.50000025  1
