# generated using pymatgen
data_NaCaF3
_symmetry_space_group_name_H-M   'P 1'
_cell_length_a   6.93543600
_cell_length_b   4.87167300
_cell_length_c   4.95875400
_cell_angle_alpha   90.00000000
_cell_angle_beta   90.00000000
_cell_angle_gamma   90.00000000
_symmetry_Int_Tables_number   1
_chemical_formula_structural   NaCaF3
_chemical_formula_sum   'Na4 Ca4 F12'
_cell_volume   167.54229565
_cell_formula_units_Z   4
loop_
 _symmetry_equiv_pos_site_id
 _symmetry_equiv_pos_as_xyz
  1  'x, y, z'
loop_
 _atom_site_type_symbol
 _atom_site_label
 _atom_site_symmetry_multiplicity
 _atom_site_fract_x
 _atom_site_fract_y
 _atom_site_fract_z
 _atom_site_occupancy
  Ca  Ca0  1  0.00000000  0.75000013  0.00000000  1
  Ca  Ca1  1  0.50000056  0.75000013  0.00000000  1
  Ca  Ca2  1  0.00000000  0.24999987  0.50000000  1
  Ca  Ca3  1  0.50000056  0.24999987  0.50000000  1
  F  F4  1  0.75000026  0.83864237  0.02792338  1
  F  F5  1  0.04607299  0.95488005  0.29367196  1
  F  F6  1  0.45392757  0.95488005  0.29367196  1
  F  F7  1  0.04607299  0.04511995  0.79367196  1
  F  F8  1  0.45392757  0.04511995  0.79367196  1
  F  F9  1  0.75000026  0.16135763  0.52792338  1
  F  F10  1  0.24999970  0.33864376  0.47207716  1
  F  F11  1  0.54607239  0.45487978  0.20632858  1
  F  F12  1  0.95392697  0.45487978  0.20632858  1
  F  F13  1  0.54607239  0.54512022  0.70632858  1
  F  F14  1  0.95392697  0.54512022  0.70632858  1
  F  F15  1  0.24999970  0.66135624  0.97207716  1
  Na  Na16  1  0.24999970  0.76078355  0.54268184  1
  Na  Na17  1  0.24999970  0.23921645  0.04268184  1
  Na  Na18  1  0.75000026  0.26078328  0.95731815  1
  Na  Na19  1  0.75000026  0.73921672  0.45731815  1
