# generated using pymatgen
data_ThCrO3
_symmetry_space_group_name_H-M   'P 1'
_cell_length_a   5.48565228
_cell_length_b   6.32885184
_cell_length_c   7.58789367
_cell_angle_alpha   90.00000000
_cell_angle_beta   90.00000000
_cell_angle_gamma   90.00000000
_symmetry_Int_Tables_number   1
_chemical_formula_structural   ThCrO3
_chemical_formula_sum   'Th4 Cr4 O12'
_cell_volume   263.43558620
_cell_formula_units_Z   4
loop_
 _symmetry_equiv_pos_site_id
 _symmetry_equiv_pos_as_xyz
  1  'x, y, z'
loop_
 _atom_site_type_symbol
 _atom_site_label
 _atom_site_symmetry_multiplicity
 _atom_site_fract_x
 _atom_site_fract_y
 _atom_site_fract_z
 _atom_site_occupancy
  Cr  Cr0  1  0.50000070  0.00000000  0.00000000  1
  Cr  Cr1  1  0.00000000  0.49999906  0.00000000  1
  Cr  Cr2  1  0.50000070  0.00000000  0.50000042  1
  Cr  Cr3  1  0.00000000  0.49999906  0.50000042  1
  O  O4  1  0.68754996  0.33896038  0.05866055  1
  O  O5  1  0.81245033  0.83895944  0.05866055  1
  O  O6  1  0.13264238  0.44973402  0.24999955  1
  O  O7  1  0.36735832  0.94973467  0.24999955  1
  O  O8  1  0.68754996  0.33896038  0.44133855  1
  O  O9  1  0.81245033  0.83895944  0.44133855  1
  O  O10  1  0.18754926  0.16104027  0.55866097  1
  O  O11  1  0.31244963  0.66103933  0.55866097  1
  O  O12  1  0.63264309  0.05026504  0.74999997  1
  O  O13  1  0.86735720  0.55026569  0.74999997  1
  O  O14  1  0.18754926  0.16104027  0.94133897  1
  O  O15  1  0.31244963  0.66103933  0.94133897  1
  Th  Th16  1  0.97722927  0.09656886  0.24999955  1
  Th  Th17  1  0.52277101  0.59656950  0.24999955  1
  Th  Th18  1  0.47722857  0.40343021  0.74999997  1
  Th  Th19  1  0.02277031  0.90343085  0.74999997  1
