# generated using pymatgen
data_PmMoO3
_symmetry_space_group_name_H-M   'P 1'
_cell_length_a   5.48852350
_cell_length_b   5.89303028
_cell_length_c   7.90666568
_cell_angle_alpha   90.00000000
_cell_angle_beta   90.00000000
_cell_angle_gamma   90.00000000
_symmetry_Int_Tables_number   1
_chemical_formula_structural   PmMoO3
_chemical_formula_sum   'Pm4 Mo4 O12'
_cell_volume   255.73347287
_cell_formula_units_Z   4
loop_
 _symmetry_equiv_pos_site_id
 _symmetry_equiv_pos_as_xyz
  1  'x, y, z'
loop_
 _atom_site_type_symbol
 _atom_site_label
 _atom_site_symmetry_multiplicity
 _atom_site_fract_x
 _atom_site_fract_y
 _atom_site_fract_z
 _atom_site_occupancy
  Mo  Mo0  1  0.49999968  0.00000000  0.00000000  1
  Mo  Mo1  1  0.00000000  0.50000082  0.00000000  1
  Mo  Mo2  1  0.49999968  0.00000000  0.49999964  1
  Mo  Mo3  1  0.00000000  0.50000082  0.49999964  1
  O  O4  1  0.68537194  0.30594956  0.05879090  1
  O  O5  1  0.81462893  0.80594868  0.05879090  1
  O  O6  1  0.12097789  0.45142649  0.25000045  1
  O  O7  1  0.37902179  0.95142562  0.25000045  1
  O  O8  1  0.68537194  0.30594956  0.44120874  1
  O  O9  1  0.81462893  0.80594868  0.44120874  1
  O  O10  1  0.18537226  0.19405127  0.55879181  1
  O  O11  1  0.31462924  0.69405040  0.55879181  1
  O  O12  1  0.62097757  0.04857433  0.75000009  1
  O  O13  1  0.87902329  0.54857346  0.75000009  1
  O  O14  1  0.18537226  0.19405127  0.94120838  1
  O  O15  1  0.31462924  0.69405040  0.94120838  1
  Pm  Pm16  1  0.97889533  0.07047817  0.25000045  1
  Pm  Pm17  1  0.52110372  0.57047900  0.25000045  1
  Pm  Pm18  1  0.47889564  0.42952096  0.75000009  1
  Pm  Pm19  1  0.02110404  0.92952178  0.75000009  1
