# generated using pymatgen
data_TcPdO3
_symmetry_space_group_name_H-M   'P 1'
_cell_length_a   5.21809180
_cell_length_b   5.54107646
_cell_length_c   7.50209977
_cell_angle_alpha   90.00000000
_cell_angle_beta   90.00000000
_cell_angle_gamma   90.00000000
_symmetry_Int_Tables_number   1
_chemical_formula_structural   TcPdO3
_chemical_formula_sum   'Tc4 Pd4 O12'
_cell_volume   216.91455438
_cell_formula_units_Z   4
loop_
 _symmetry_equiv_pos_site_id
 _symmetry_equiv_pos_as_xyz
  1  'x, y, z'
loop_
 _atom_site_type_symbol
 _atom_site_label
 _atom_site_symmetry_multiplicity
 _atom_site_fract_x
 _atom_site_fract_y
 _atom_site_fract_z
 _atom_site_occupancy
  O  O0  1  0.67348566  0.31550187  0.03443169  1
  O  O1  1  0.82651286  0.81550219  0.03443169  1
  O  O2  1  0.08022856  0.47427427  0.24999934  1
  O  O3  1  0.41977031  0.97427279  0.24999934  1
  O  O4  1  0.67348566  0.31550187  0.46556832  1
  O  O5  1  0.82651286  0.81550219  0.46556832  1
  O  O6  1  0.17348487  0.18449845  0.53443038  1
  O  O7  1  0.32651400  0.68449696  0.53443038  1
  O  O8  1  0.58022935  0.02572424  0.74999936  1
  O  O9  1  0.91977109  0.52572456  0.74999936  1
  O  O10  1  0.17348487  0.18449845  0.96556967  1
  O  O11  1  0.32651400  0.68449696  0.96556967  1
  Pd  Pd12  1  0.98905313  0.00047283  0.24999934  1
  Pd  Pd13  1  0.51094923  0.50047315  0.24999934  1
  Pd  Pd14  1  0.48905234  0.49952749  0.74999936  1
  Pd  Pd15  1  0.01094653  0.99952717  0.74999936  1
  Tc  Tc16  1  0.49999887  0.00000000  0.00000000  1
  Tc  Tc17  1  0.00000000  0.50000032  0.00000000  1
  Tc  Tc18  1  0.49999887  0.00000000  0.50000002  1
  Tc  Tc19  1  0.00000000  0.50000032  0.50000002  1
