# generated using pymatgen
data_TbScO3
_symmetry_space_group_name_H-M   'P 1'
_cell_length_a   5.47333800
_cell_length_b   5.76330400
_cell_length_c   7.99952700
_cell_angle_alpha   90.00000000
_cell_angle_beta   90.00000000
_cell_angle_gamma   90.00000000
_symmetry_Int_Tables_number   1
_chemical_formula_structural   TbScO3
_chemical_formula_sum   'Tb4 Sc4 O12'
_cell_volume   252.34116576
_cell_formula_units_Z   4
loop_
 _symmetry_equiv_pos_site_id
 _symmetry_equiv_pos_as_xyz
  1  'x, y, z'
loop_
 _atom_site_type_symbol
 _atom_site_label
 _atom_site_symmetry_multiplicity
 _atom_site_fract_x
 _atom_site_fract_y
 _atom_site_fract_z
 _atom_site_occupancy
  Tb  Tb0  1  0.98013300  0.06200800  0.75000000  1
  Tb  Tb1  1  0.48013300  0.43799200  0.25000000  1
  Tb  Tb2  1  0.51986700  0.56200800  0.75000000  1
  Tb  Tb3  1  0.01986700  0.93799200  0.25000000  1
  Sc  Sc4  1  0.00000000  0.50000000  0.50000000  1
  Sc  Sc5  1  0.50000000  0.00000000  0.50000000  1
  Sc  Sc6  1  0.50000000  0.00000000  0.00000000  1
  Sc  Sc7  1  0.00000000  0.50000000  0.00000000  1
  O  O8  1  0.69201100  0.30558500  0.56727500  1
  O  O9  1  0.19201100  0.19441500  0.43272500  1
  O  O10  1  0.80798900  0.80558500  0.93272500  1
  O  O11  1  0.30798900  0.69441500  0.06727500  1
  O  O12  1  0.30798900  0.69441500  0.43272500  1
  O  O13  1  0.80798900  0.80558500  0.56727500  1
  O  O14  1  0.19201100  0.19441500  0.06727500  1
  O  O15  1  0.69201100  0.30558500  0.93272500  1
  O  O16  1  0.87169200  0.55510900  0.25000000  1
  O  O17  1  0.37169200  0.94489100  0.75000000  1
  O  O18  1  0.62830800  0.05510900  0.25000000  1
  O  O19  1  0.12830800  0.44489100  0.75000000  1
