# generated using pymatgen
data_LuPbO3
_symmetry_space_group_name_H-M   'P 1'
_cell_length_a   5.71382551
_cell_length_b   5.96034178
_cell_length_c   8.31602972
_cell_angle_alpha   90.00000000
_cell_angle_beta   90.00000000
_cell_angle_gamma   90.00000000
_symmetry_Int_Tables_number   1
_chemical_formula_structural   LuPbO3
_chemical_formula_sum   'Lu4 Pb4 O12'
_cell_volume   283.21364284
_cell_formula_units_Z   4
loop_
 _symmetry_equiv_pos_site_id
 _symmetry_equiv_pos_as_xyz
  1  'x, y, z'
loop_
 _atom_site_type_symbol
 _atom_site_label
 _atom_site_symmetry_multiplicity
 _atom_site_fract_x
 _atom_site_fract_y
 _atom_site_fract_z
 _atom_site_occupancy
  Lu  Lu0  1  0.49999952  0.00000000  0.00000000  1
  Lu  Lu1  1  0.00000000  0.49999985  0.00000000  1
  Lu  Lu2  1  0.49999952  0.00000000  0.49999942  1
  Lu  Lu3  1  0.00000000  0.49999985  0.49999942  1
  O  O4  1  0.68026404  0.31363805  0.06615416  1
  O  O5  1  0.81973627  0.81363790  0.06615416  1
  O  O6  1  0.13381228  0.43609076  0.25000031  1
  O  O7  1  0.36618724  0.93609061  0.25000031  1
  O  O8  1  0.68026404  0.31363805  0.43384525  1
  O  O9  1  0.81973627  0.81363790  0.43384525  1
  O  O10  1  0.18026277  0.18636347  0.56615478  1
  O  O11  1  0.31973675  0.68636332  0.56615478  1
  O  O12  1  0.63381355  0.06391076  0.74999972  1
  O  O13  1  0.86618676  0.56391061  0.74999972  1
  O  O14  1  0.18026277  0.18636347  0.93384587  1
  O  O15  1  0.31973675  0.68636332  0.93384587  1
  Pb  Pb16  1  0.98654220  0.04687651  0.25000031  1
  Pb  Pb17  1  0.51345635  0.54687636  0.25000031  1
  Pb  Pb18  1  0.48654268  0.45312334  0.74999972  1
  Pb  Pb19  1  0.01345683  0.95312487  0.74999972  1
