# generated using pymatgen
data_SnSbO3
_symmetry_space_group_name_H-M   'P 1'
_cell_length_a   4.13494032
_cell_length_b   4.13494032
_cell_length_c   4.37221392
_cell_angle_alpha   90.00000000
_cell_angle_beta   90.00000000
_cell_angle_gamma   90.00000000
_symmetry_Int_Tables_number   1
_chemical_formula_structural   SnSbO3
_chemical_formula_sum   'Sn1 Sb1 O3'
_cell_volume   74.75493934
_cell_formula_units_Z   1
loop_
 _symmetry_equiv_pos_site_id
 _symmetry_equiv_pos_as_xyz
  1  'x, y, z'
loop_
 _atom_site_type_symbol
 _atom_site_label
 _atom_site_symmetry_multiplicity
 _atom_site_fract_x
 _atom_site_fract_y
 _atom_site_fract_z
 _atom_site_occupancy
  O  O0  1  0.49999996  0.49999996  0.09803043  1
  O  O1  1  0.49999996  0.00000000  0.64586273  1
  O  O2  1  0.00000000  0.49999996  0.64586273  1
  Sb  Sb3  1  0.49999996  0.49999996  0.54762417  1
  Sn  Sn4  1  0.00000000  0.00000000  0.96262216  1
