# generated using pymatgen
data_SnSbO3
_symmetry_space_group_name_H-M   'P 1'
_cell_length_a   5.74781077
_cell_length_b   5.94788833
_cell_length_c   8.31371852
_cell_angle_alpha   90.00000000
_cell_angle_beta   90.00000000
_cell_angle_gamma   90.00000000
_symmetry_Int_Tables_number   1
_chemical_formula_structural   SnSbO3
_chemical_formula_sum   'Sn4 Sb4 O12'
_cell_volume   284.22389319
_cell_formula_units_Z   4
loop_
 _symmetry_equiv_pos_site_id
 _symmetry_equiv_pos_as_xyz
  1  'x, y, z'
loop_
 _atom_site_type_symbol
 _atom_site_label
 _atom_site_symmetry_multiplicity
 _atom_site_fract_x
 _atom_site_fract_y
 _atom_site_fract_z
 _atom_site_occupancy
  O  O0  1  0.69624422  0.29913474  0.03778574  1
  O  O1  1  0.80375471  0.79913572  0.03778574  1
  O  O2  1  0.08813791  0.48126156  0.25000004  1
  O  O3  1  0.41186290  0.98126254  0.25000004  1
  O  O4  1  0.69624422  0.29913474  0.46221555  1
  O  O5  1  0.80375471  0.79913572  0.46221555  1
  O  O6  1  0.19624515  0.20086456  0.53778463  1
  O  O7  1  0.30375565  0.70086555  0.53778463  1
  O  O8  1  0.58813697  0.01873774  0.75000013  1
  O  O9  1  0.91186196  0.51873704  0.75000013  1
  O  O10  1  0.19624515  0.20086456  0.96221444  1
  O  O11  1  0.30375565  0.70086555  0.96221444  1
  Sb  Sb12  1  0.50000080  0.00000000  0.00000000  1
  Sb  Sb13  1  0.00000000  0.49999930  0.00000000  1
  Sb  Sb14  1  0.50000080  0.00000000  0.50000009  1
  Sb  Sb15  1  0.00000000  0.49999930  0.50000009  1
  Sn  Sn16  1  0.99882899  0.02807383  0.25000004  1
  Sn  Sn17  1  0.50116994  0.52807313  0.25000004  1
  Sn  Sn18  1  0.49882992  0.47192715  0.75000013  1
  Sn  Sn19  1  0.00117088  0.97192645  0.75000013  1
