# generated using pymatgen
data_ScAgO3
_symmetry_space_group_name_H-M   'P 1'
_cell_length_a   5.27622370
_cell_length_b   5.63519594
_cell_length_c   7.91845480
_cell_angle_alpha   90.00000000
_cell_angle_beta   90.00000000
_cell_angle_gamma   90.00000000
_symmetry_Int_Tables_number   1
_chemical_formula_structural   ScAgO3
_chemical_formula_sum   'Sc4 Ag4 O12'
_cell_volume   235.43588770
_cell_formula_units_Z   4
loop_
 _symmetry_equiv_pos_site_id
 _symmetry_equiv_pos_as_xyz
  1  'x, y, z'
loop_
 _atom_site_type_symbol
 _atom_site_label
 _atom_site_symmetry_multiplicity
 _atom_site_fract_x
 _atom_site_fract_y
 _atom_site_fract_z
 _atom_site_occupancy
  Ag  Ag0  1  0.97932542  0.07724310  0.24999953  1
  Ag  Ag1  1  0.52067353  0.57724346  0.24999953  1
  Ag  Ag2  1  0.47932577  0.42275726  0.74999986  1
  Ag  Ag3  1  0.02067388  0.92275585  0.74999986  1
  O  O4  1  0.69073455  0.30181559  0.07925536  1
  O  O5  1  0.80926629  0.80181595  0.07925536  1
  O  O6  1  0.14741035  0.42477316  0.24999953  1
  O  O7  1  0.35258930  0.92477352  0.24999953  1
  O  O8  1  0.69073455  0.30181559  0.42074497  1
  O  O9  1  0.80926629  0.80181595  0.42074497  1
  O  O10  1  0.19073490  0.19818299  0.57925569  1
  O  O11  1  0.30926664  0.69818335  0.57925569  1
  O  O12  1  0.64741000  0.07522542  0.74999986  1
  O  O13  1  0.85258895  0.57522756  0.74999986  1
  O  O14  1  0.19073490  0.19818299  0.92074403  1
  O  O15  1  0.30926664  0.69818335  0.92074403  1
  Sc  Sc16  1  0.49999965  0.00000000  0.00000000  1
  Sc  Sc17  1  0.00000000  0.49999859  0.00000000  1
  Sc  Sc18  1  0.49999965  0.00000000  0.50000033  1
  Sc  Sc19  1  0.00000000  0.49999859  0.50000033  1
