# generated using pymatgen
data_GaSbO3
_symmetry_space_group_name_H-M   'P 1'
_cell_length_a   5.27873107
_cell_length_b   5.67467139
_cell_length_c   7.65332342
_cell_angle_alpha   90.00000000
_cell_angle_beta   90.00000000
_cell_angle_gamma   90.00000000
_symmetry_Int_Tables_number   1
_chemical_formula_structural   GaSbO3
_chemical_formula_sum   'Ga4 Sb4 O12'
_cell_volume   229.25579393
_cell_formula_units_Z   4
loop_
 _symmetry_equiv_pos_site_id
 _symmetry_equiv_pos_as_xyz
  1  'x, y, z'
loop_
 _atom_site_type_symbol
 _atom_site_label
 _atom_site_symmetry_multiplicity
 _atom_site_fract_x
 _atom_site_fract_y
 _atom_site_fract_z
 _atom_site_occupancy
  Ga  Ga0  1  0.50000085  0.00000000  0.00000000  1
  Ga  Ga1  1  0.00000000  0.49999900  0.00000000  1
  Ga  Ga2  1  0.50000085  0.00000000  0.49999978  1
  Ga  Ga3  1  0.00000000  0.49999900  0.49999978  1
  O  O4  1  0.67188306  0.30907340  0.04646478  1
  O  O5  1  0.82811758  0.80907416  0.04646478  1
  O  O6  1  0.11555618  0.47430588  0.25000120  1
  O  O7  1  0.38444467  0.97430840  0.25000120  1
  O  O8  1  0.67188306  0.30907340  0.45353500  1
  O  O9  1  0.82811758  0.80907416  0.45353500  1
  O  O10  1  0.17188222  0.19092736  0.54646456  1
  O  O11  1  0.32811673  0.69092635  0.54646456  1
  O  O12  1  0.61555703  0.02569312  0.75000097  1
  O  O13  1  0.88444362  0.52569211  0.75000097  1
  O  O14  1  0.17188222  0.19092736  0.95353608  1
  O  O15  1  0.32811673  0.69092635  0.95353608  1
  Sb  Sb16  1  0.99068506  0.03966397  0.25000120  1
  Sb  Sb17  1  0.50931558  0.53966297  0.25000120  1
  Sb  Sb18  1  0.49068421  0.46033855  0.75000097  1
  Sb  Sb19  1  0.00931474  0.96033755  0.75000097  1
