# generated using pymatgen
data_TmMnO3
_symmetry_space_group_name_H-M   'P 1'
_cell_length_a   5.27079300
_cell_length_b   5.81241900
_cell_length_c   7.45387100
_cell_angle_alpha   90.00000000
_cell_angle_beta   90.00000000
_cell_angle_gamma   90.00000000
_symmetry_Int_Tables_number   1
_chemical_formula_structural   TmMnO3
_chemical_formula_sum   'Tm4 Mn4 O12'
_cell_volume   228.35721965
_cell_formula_units_Z   4
loop_
 _symmetry_equiv_pos_site_id
 _symmetry_equiv_pos_as_xyz
  1  'x, y, z'
loop_
 _atom_site_type_symbol
 _atom_site_label
 _atom_site_symmetry_multiplicity
 _atom_site_fract_x
 _atom_site_fract_y
 _atom_site_fract_z
 _atom_site_occupancy
  Tm  Tm0  1  0.47991500  0.41630900  0.75000000  1
  Tm  Tm1  1  0.52008500  0.58369100  0.25000000  1
  Tm  Tm2  1  0.02008500  0.91630900  0.75000000  1
  Tm  Tm3  1  0.97991500  0.08369100  0.25000000  1
  Mn  Mn4  1  0.50000000  0.00000000  0.50000000  1
  Mn  Mn5  1  0.50000000  0.00000000  0.00000000  1
  Mn  Mn6  1  0.00000000  0.50000000  0.50000000  1
  Mn  Mn7  1  0.00000000  0.50000000  0.00000000  1
  O  O8  1  0.69763600  0.32697100  0.44000400  1
  O  O9  1  0.87372900  0.54676300  0.75000000  1
  O  O10  1  0.80236400  0.82697100  0.05999600  1
  O  O11  1  0.12627100  0.45323700  0.25000000  1
  O  O12  1  0.19763600  0.17302900  0.55999600  1
  O  O13  1  0.62627100  0.04676300  0.75000000  1
  O  O14  1  0.69763600  0.32697100  0.05999600  1
  O  O15  1  0.30236400  0.67302900  0.55999600  1
  O  O16  1  0.37372900  0.95323700  0.25000000  1
  O  O17  1  0.80236400  0.82697100  0.44000400  1
  O  O18  1  0.19763600  0.17302900  0.94000400  1
  O  O19  1  0.30236400  0.67302900  0.94000400  1
