# generated using pymatgen
data_ScInO3
_symmetry_space_group_name_H-M   'P 1'
_cell_length_a   5.31667167
_cell_length_b   5.58087253
_cell_length_c   8.08196021
_cell_angle_alpha   90.00000000
_cell_angle_beta   90.00000000
_cell_angle_gamma   90.00000000
_symmetry_Int_Tables_number   1
_chemical_formula_structural   ScInO3
_chemical_formula_sum   'Sc4 In4 O12'
_cell_volume   239.80523079
_cell_formula_units_Z   4
loop_
 _symmetry_equiv_pos_site_id
 _symmetry_equiv_pos_as_xyz
  1  'x, y, z'
loop_
 _atom_site_type_symbol
 _atom_site_label
 _atom_site_symmetry_multiplicity
 _atom_site_fract_x
 _atom_site_fract_y
 _atom_site_fract_z
 _atom_site_occupancy
  In  In0  1  0.49999890  0.00000000  0.00000000  1
  In  In1  1  0.00000000  0.49999888  0.00000000  1
  In  In2  1  0.49999890  0.00000000  0.49999999  1
  In  In3  1  0.00000000  0.49999888  0.49999999  1
  O  O4  1  0.67328401  0.32199625  0.08368762  1
  O  O5  1  0.82671458  0.82199512  0.08368762  1
  O  O6  1  0.16209201  0.40094985  0.24999999  1
  O  O7  1  0.33790877  0.90094873  0.24999999  1
  O  O8  1  0.67328401  0.32199625  0.41631113  1
  O  O9  1  0.82671458  0.82199512  0.41631113  1
  O  O10  1  0.17328510  0.17800442  0.58368884  1
  O  O11  1  0.32671380  0.67800509  0.58368884  1
  O  O12  1  0.66209279  0.09904903  0.74999998  1
  O  O13  1  0.83790768  0.59905149  0.74999998  1
  O  O14  1  0.17328510  0.17800442  0.91631112  1
  O  O15  1  0.32671380  0.67800509  0.91631112  1
  Sc  Sc16  1  0.98668120  0.05072684  0.24999999  1
  Sc  Sc17  1  0.51331927  0.55072571  0.24999999  1
  Sc  Sc18  1  0.48667854  0.44927383  0.74999998  1
  Sc  Sc19  1  0.01332036  0.94927450  0.74999998  1
