# generated using pymatgen
data_ScInO3
_symmetry_space_group_name_H-M   'P 1'
_cell_length_a   5.35470001
_cell_length_b   5.55284960
_cell_length_c   7.95977573
_cell_angle_alpha   90.00000000
_cell_angle_beta   90.00000000
_cell_angle_gamma   90.00000000
_symmetry_Int_Tables_number   1
_chemical_formula_structural   ScInO3
_chemical_formula_sum   'Sc4 In4 O12'
_cell_volume   236.67472815
_cell_formula_units_Z   4
loop_
 _symmetry_equiv_pos_site_id
 _symmetry_equiv_pos_as_xyz
  1  'x, y, z'
loop_
 _atom_site_type_symbol
 _atom_site_label
 _atom_site_symmetry_multiplicity
 _atom_site_fract_x
 _atom_site_fract_y
 _atom_site_fract_z
 _atom_site_occupancy
  In  In0  1  0.98352849  0.05598027  0.25000076  1
  In  In1  1  0.51647151  0.55597940  0.25000076  1
  In  In2  1  0.48353036  0.44402247  0.74999977  1
  In  In3  1  0.01647151  0.94402161  0.74999977  1
  O  O4  1  0.68082245  0.31519132  0.07278346  1
  O  O5  1  0.81917754  0.81519046  0.07278346  1
  O  O6  1  0.13406167  0.42147009  0.25000076  1
  O  O7  1  0.36593833  0.92147102  0.25000076  1
  O  O8  1  0.68082245  0.31519132  0.42721681  1
  O  O9  1  0.81917754  0.81519046  0.42721681  1
  O  O10  1  0.18082432  0.18480962  0.57278373  1
  O  O11  1  0.31917754  0.68480875  0.57278373  1
  O  O12  1  0.63406353  0.07852905  0.74999977  1
  O  O13  1  0.86593647  0.57852819  0.74999977  1
  O  O14  1  0.18082432  0.18480962  0.92721708  1
  O  O15  1  0.31917754  0.68480875  0.92721708  1
  Sc  Sc16  1  0.50000000  0.00000000  0.00000000  1
  Sc  Sc17  1  0.00000000  0.49999914  0.00000000  1
  Sc  Sc18  1  0.50000000  0.00000000  0.50000027  1
  Sc  Sc19  1  0.00000000  0.49999914  0.50000027  1
