# generated using pymatgen
data_CuTcO3
_symmetry_space_group_name_H-M   'P 1'
_cell_length_a   5.14896338
_cell_length_b   5.26314151
_cell_length_c   7.44654809
_cell_angle_alpha   90.00000000
_cell_angle_beta   90.00000000
_cell_angle_gamma   90.00000000
_symmetry_Int_Tables_number   1
_chemical_formula_structural   CuTcO3
_chemical_formula_sum   'Cu4 Tc4 O12'
_cell_volume   201.79939012
_cell_formula_units_Z   4
loop_
 _symmetry_equiv_pos_site_id
 _symmetry_equiv_pos_as_xyz
  1  'x, y, z'
loop_
 _atom_site_type_symbol
 _atom_site_label
 _atom_site_symmetry_multiplicity
 _atom_site_fract_x
 _atom_site_fract_y
 _atom_site_fract_z
 _atom_site_occupancy
  Cu  Cu0  1  0.99604321  0.01029613  0.24999906  1
  Cu  Cu1  1  0.50395581  0.51029599  0.24999906  1
  Cu  Cu2  1  0.49604354  0.48970372  0.74999986  1
  Cu  Cu3  1  0.00395808  0.98970358  0.74999986  1
  O  O4  1  0.68051173  0.31313427  0.05829681  1
  O  O5  1  0.81949116  0.81313223  0.05829681  1
  O  O6  1  0.12142833  0.46773966  0.24999906  1
  O  O7  1  0.37857135  0.96773761  0.24999906  1
  O  O8  1  0.68051173  0.31313427  0.44170265  1
  O  O9  1  0.81949116  0.81313223  0.44170265  1
  O  O10  1  0.18051012  0.18686748  0.55829627  1
  O  O11  1  0.31948955  0.68686544  0.55829627  1
  O  O12  1  0.62142800  0.03226210  0.74999986  1
  O  O13  1  0.87857102  0.53226196  0.74999986  1
  O  O14  1  0.18051012  0.18686748  0.94170345  1
  O  O15  1  0.31948955  0.68686544  0.94170345  1
  Tc  Tc16  1  0.49999967  0.00000000  0.00000000  1
  Tc  Tc17  1  0.00000000  0.49999986  0.00000000  1
  Tc  Tc18  1  0.49999967  0.00000000  0.50000080  1
  Tc  Tc19  1  0.00000000  0.49999986  0.50000080  1
