# generated using pymatgen
data_CuTcO3
_symmetry_space_group_name_H-M   'P 1'
_cell_length_a   5.27166198
_cell_length_b   5.28330028
_cell_length_c   7.17757494
_cell_angle_alpha   90.00000000
_cell_angle_beta   90.00000000
_cell_angle_gamma   90.00000000
_symmetry_Int_Tables_number   1
_chemical_formula_structural   CuTcO3
_chemical_formula_sum   'Cu4 Tc4 O12'
_cell_volume   199.90818944
_cell_formula_units_Z   4
loop_
 _symmetry_equiv_pos_site_id
 _symmetry_equiv_pos_as_xyz
  1  'x, y, z'
loop_
 _atom_site_type_symbol
 _atom_site_label
 _atom_site_symmetry_multiplicity
 _atom_site_fract_x
 _atom_site_fract_y
 _atom_site_fract_z
 _atom_site_occupancy
  Cu  Cu0  1  0.49999981  0.00000000  0.00000000  1
  Cu  Cu1  1  0.00000000  0.49999997  0.00000000  1
  Cu  Cu2  1  0.49999981  0.00000000  0.49999896  1
  Cu  Cu3  1  0.00000000  0.49999997  0.49999896  1
  O  O4  1  0.65161993  0.33945260  0.07106718  1
  O  O5  1  0.84838141  0.83945446  0.07106718  1
  O  O6  1  0.15791035  0.39907821  0.24999948  1
  O  O7  1  0.34208946  0.89907818  0.24999948  1
  O  O8  1  0.65161993  0.33945260  0.42893457  1
  O  O9  1  0.84838141  0.83945446  0.42893457  1
  O  O10  1  0.15162012  0.16054738  0.57106614  1
  O  O11  1  0.34837970  0.66054546  0.57106614  1
  O  O12  1  0.65791206  0.10092366  0.75000123  1
  O  O13  1  0.84208927  0.60092174  0.75000123  1
  O  O14  1  0.15162012  0.16054738  0.92893353  1
  O  O15  1  0.34837970  0.66054546  0.92893353  1
  Tc  Tc16  1  0.00880557  0.04299964  0.24999948  1
  Tc  Tc17  1  0.49119614  0.54299961  0.24999948  1
  Tc  Tc18  1  0.50880538  0.45699844  0.75000123  1
  Tc  Tc19  1  0.99119595  0.95700031  0.75000123  1
