# generated using pymatgen
data_CsYO3
_symmetry_space_group_name_H-M   'P 1'
_cell_length_a   6.36076322
_cell_length_b   6.36076322
_cell_length_c   6.36076332
_cell_angle_alpha   61.18318707
_cell_angle_beta   61.18318707
_cell_angle_gamma   61.18318459
_symmetry_Int_Tables_number   1
_chemical_formula_structural   CsYO3
_chemical_formula_sum   'Cs2 Y2 O6'
_cell_volume   186.81920663
_cell_formula_units_Z   2
loop_
 _symmetry_equiv_pos_site_id
 _symmetry_equiv_pos_as_xyz
  1  'x, y, z'
loop_
 _atom_site_type_symbol
 _atom_site_label
 _atom_site_symmetry_multiplicity
 _atom_site_fract_x
 _atom_site_fract_y
 _atom_site_fract_z
 _atom_site_occupancy
  Cs  Cs0  1  0.24999989  0.24999989  0.24999989  1
  Cs  Cs1  1  0.75000031  0.75000031  0.75000031  1
  O  O2  1  0.74999951  0.25703183  0.24296875  1
  O  O3  1  0.74296969  0.75703171  0.24999910  1
  O  O4  1  0.24296918  0.74999888  0.25703202  1
  O  O5  1  0.75703102  0.25000132  0.74296817  1
  O  O6  1  0.25703050  0.24296848  0.75000110  1
  O  O7  1  0.25000069  0.74296837  0.75703145  1
  Y  Y8  1  0.00000000  0.00000000  0.00000000  1
  Y  Y9  1  0.49999977  0.49999977  0.49999977  1
