# generated using pymatgen
data_PrZnO3
_symmetry_space_group_name_H-M   'P 1'
_cell_length_a   5.43670054
_cell_length_b   5.72363241
_cell_length_c   7.76555923
_cell_angle_alpha   90.00000000
_cell_angle_beta   90.00000000
_cell_angle_gamma   90.00000000
_symmetry_Int_Tables_number   1
_chemical_formula_structural   PrZnO3
_chemical_formula_sum   'Pr4 Zn4 O12'
_cell_volume   241.64615166
_cell_formula_units_Z   4
loop_
 _symmetry_equiv_pos_site_id
 _symmetry_equiv_pos_as_xyz
  1  'x, y, z'
loop_
 _atom_site_type_symbol
 _atom_site_label
 _atom_site_symmetry_multiplicity
 _atom_site_fract_x
 _atom_site_fract_y
 _atom_site_fract_z
 _atom_site_occupancy
  O  O0  1  0.70892998  0.30142047  0.04446299  1
  O  O1  1  0.79106987  0.80142114  0.04446299  1
  O  O2  1  0.08396085  0.48095157  0.25000002  1
  O  O3  1  0.41603910  0.98095223  0.25000002  1
  O  O4  1  0.70892998  0.30142047  0.45553577  1
  O  O5  1  0.79106987  0.80142114  0.45553577  1
  O  O6  1  0.20893003  0.19858019  0.54446433  1
  O  O7  1  0.29107176  0.69858085  0.54446433  1
  O  O8  1  0.58396080  0.01904734  0.75000007  1
  O  O9  1  0.91603905  0.51904626  0.75000007  1
  O  O10  1  0.20893003  0.19858019  0.95553582  1
  O  O11  1  0.29107176  0.69858085  0.95553582  1
  Pr  Pr12  1  0.98453464  0.06327101  0.25000002  1
  Pr  Pr13  1  0.51546521  0.56327167  0.25000002  1
  Pr  Pr14  1  0.48453285  0.43672965  0.75000007  1
  Pr  Pr15  1  0.01546526  0.93672857  0.75000007  1
  Zn  Zn16  1  0.49999995  0.00000000  0.00000000  1
  Zn  Zn17  1  0.00000000  0.50000066  0.00000000  1
  Zn  Zn18  1  0.49999995  0.00000000  0.50000005  1
  Zn  Zn19  1  0.00000000  0.50000066  0.50000005  1
