# generated using pymatgen
data_RbGaO3
_symmetry_space_group_name_H-M   'P 1'
_cell_length_a   5.67263307
_cell_length_b   5.66212580
_cell_length_c   8.01481642
_cell_angle_alpha   90.00000000
_cell_angle_beta   90.00000000
_cell_angle_gamma   90.00000000
_symmetry_Int_Tables_number   1
_chemical_formula_structural   RbGaO3
_chemical_formula_sum   'Rb4 Ga4 O12'
_cell_volume   257.42918772
_cell_formula_units_Z   4
loop_
 _symmetry_equiv_pos_site_id
 _symmetry_equiv_pos_as_xyz
  1  'x, y, z'
loop_
 _atom_site_type_symbol
 _atom_site_label
 _atom_site_symmetry_multiplicity
 _atom_site_fract_x
 _atom_site_fract_y
 _atom_site_fract_z
 _atom_site_occupancy
  Ga  Ga0  1  0.50000061  0.00000000  0.00000000  1
  Ga  Ga1  1  0.00000000  0.50000125  0.00000000  1
  Ga  Ga2  1  0.50000061  0.00000000  0.50000022  1
  Ga  Ga3  1  0.00000000  0.50000125  0.50000022  1
  O  O4  1  0.75000268  0.24963945  0.00012227  1
  O  O5  1  0.74999739  0.74964071  0.00012227  1
  O  O6  1  0.50023331  0.00150120  0.24999949  1
  O  O7  1  0.99976676  0.50150069  0.24999949  1
  O  O8  1  0.75000268  0.24963945  0.49987795  1
  O  O9  1  0.74999739  0.74964071  0.49987795  1
  O  O10  1  0.25000207  0.25035827  0.50012250  1
  O  O11  1  0.24999678  0.75035952  0.50012250  1
  O  O12  1  0.00023270  0.49849828  0.74999971  1
  O  O13  1  0.49976615  0.99849777  0.74999971  1
  O  O14  1  0.25000207  0.25035827  0.99987817  1
  O  O15  1  0.24999678  0.75035952  0.99987817  1
  Rb  Rb16  1  0.00023270  0.00087953  0.24999949  1
  Rb  Rb17  1  0.49976615  0.50087902  0.24999949  1
  Rb  Rb18  1  0.50023331  0.49911996  0.74999971  1
  Rb  Rb19  1  0.99976676  0.99912121  0.74999971  1
