# generated using pymatgen
data_PaPdO3
_symmetry_space_group_name_H-M   'P 1'
_cell_length_a   5.35973858
_cell_length_b   6.10535830
_cell_length_c   8.45672527
_cell_angle_alpha   90.00000000
_cell_angle_beta   90.00000000
_cell_angle_gamma   90.00000000
_symmetry_Int_Tables_number   1
_chemical_formula_structural   PaPdO3
_chemical_formula_sum   'Pa4 Pd4 O12'
_cell_volume   276.73047305
_cell_formula_units_Z   4
loop_
 _symmetry_equiv_pos_site_id
 _symmetry_equiv_pos_as_xyz
  1  'x, y, z'
loop_
 _atom_site_type_symbol
 _atom_site_label
 _atom_site_symmetry_multiplicity
 _atom_site_fract_x
 _atom_site_fract_y
 _atom_site_fract_z
 _atom_site_occupancy
  O  O0  1  0.67662442  0.29982188  0.08024383  1
  O  O1  1  0.82337598  0.79982366  0.08024383  1
  O  O2  1  0.15260259  0.43898980  0.24999984  1
  O  O3  1  0.34739941  0.93898994  0.24999984  1
  O  O4  1  0.67662442  0.29982188  0.41975704  1
  O  O5  1  0.82337598  0.79982366  0.41975704  1
  O  O6  1  0.17662615  0.20017662  0.58024233  1
  O  O7  1  0.32337585  0.70017676  0.58024233  1
  O  O8  1  0.65260086  0.06101034  0.74999953  1
  O  O9  1  0.84739767  0.56101048  0.74999953  1
  O  O10  1  0.17662615  0.20017662  0.91975555  1
  O  O11  1  0.32337585  0.70017676  0.91975555  1
  Pa  Pa12  1  0.50000200  0.00000000  0.00000000  1
  Pa  Pa13  1  0.00000000  0.50000178  0.00000000  1
  Pa  Pa14  1  0.50000200  0.00000000  0.50000087  1
  Pa  Pa15  1  0.00000000  0.50000178  0.50000087  1
  Pd  Pd16  1  0.99099423  0.10700764  0.24999984  1
  Pd  Pd17  1  0.50900430  0.60700778  0.24999984  1
  Pd  Pd18  1  0.49099410  0.39299250  0.74999953  1
  Pd  Pd19  1  0.00900417  0.89299264  0.74999953  1
