# generated using pymatgen
data_ErPbO3
_symmetry_space_group_name_H-M   'P 1'
_cell_length_a   5.76574653
_cell_length_b   6.01915168
_cell_length_c   8.40473240
_cell_angle_alpha   90.00000000
_cell_angle_beta   90.00000000
_cell_angle_gamma   90.00000000
_symmetry_Int_Tables_number   1
_chemical_formula_structural   ErPbO3
_chemical_formula_sum   'Er4 Pb4 O12'
_cell_volume   291.68542191
_cell_formula_units_Z   4
loop_
 _symmetry_equiv_pos_site_id
 _symmetry_equiv_pos_as_xyz
  1  'x, y, z'
loop_
 _atom_site_type_symbol
 _atom_site_label
 _atom_site_symmetry_multiplicity
 _atom_site_fract_x
 _atom_site_fract_y
 _atom_site_fract_z
 _atom_site_occupancy
  Er  Er0  1  0.49999943  0.00000000  0.00000000  1
  Er  Er1  1  0.00000000  0.50000069  0.00000000  1
  Er  Er2  1  0.49999943  0.00000000  0.50000045  1
  Er  Er3  1  0.00000000  0.50000069  0.50000045  1
  O  O4  1  0.67677446  0.31671074  0.06936092  1
  O  O5  1  0.82322557  0.81670977  0.06936092  1
  O  O6  1  0.14005472  0.42838096  0.24999963  1
  O  O7  1  0.35994645  0.92837999  0.24999963  1
  O  O8  1  0.67677446  0.31671074  0.43063953  1
  O  O9  1  0.82322557  0.81670977  0.43063953  1
  O  O10  1  0.17677503  0.18328995  0.56936019  1
  O  O11  1  0.32322441  0.68329064  0.56936019  1
  O  O12  1  0.64005415  0.07161973  0.75000008  1
  O  O13  1  0.85994588  0.57162042  0.75000008  1
  O  O14  1  0.17677503  0.18328995  0.93063998  1
  O  O15  1  0.32322441  0.68329064  0.93063998  1
  Pb  Pb16  1  0.98770384  0.04604802  0.24999963  1
  Pb  Pb17  1  0.51229619  0.54604705  0.24999963  1
  Pb  Pb18  1  0.48770441  0.45395267  0.75000008  1
  Pb  Pb19  1  0.01229503  0.95395170  0.75000008  1
