# generated using pymatgen
data_UMnO3
_symmetry_space_group_name_H-M   'P 1'
_cell_length_a   5.46256794
_cell_length_b   5.93952164
_cell_length_c   7.87851375
_cell_angle_alpha   90.00000000
_cell_angle_beta   90.00000000
_cell_angle_gamma   90.00000000
_symmetry_Int_Tables_number   1
_chemical_formula_structural   UMnO3
_chemical_formula_sum   'U4 Mn4 O12'
_cell_volume   255.61869770
_cell_formula_units_Z   4
loop_
 _symmetry_equiv_pos_site_id
 _symmetry_equiv_pos_as_xyz
  1  'x, y, z'
loop_
 _atom_site_type_symbol
 _atom_site_label
 _atom_site_symmetry_multiplicity
 _atom_site_fract_x
 _atom_site_fract_y
 _atom_site_fract_z
 _atom_site_occupancy
  Mn  Mn0  1  0.49999927  0.00000000  0.00000000  1
  Mn  Mn1  1  0.00000000  0.49999986  0.00000000  1
  Mn  Mn2  1  0.49999927  0.00000000  0.49999913  1
  Mn  Mn3  1  0.00000000  0.49999986  0.49999913  1
  O  O4  1  0.67931970  0.31589413  0.07031022  1
  O  O5  1  0.82068178  0.81589399  0.07031022  1
  O  O6  1  0.14565311  0.43499463  0.25000020  1
  O  O7  1  0.35434616  0.93499449  0.25000020  1
  O  O8  1  0.67931970  0.31589413  0.42968891  1
  O  O9  1  0.82068178  0.81589399  0.42968891  1
  O  O10  1  0.17931859  0.18410574  0.57031061  1
  O  O11  1  0.32068251  0.68410728  0.57031061  1
  O  O12  1  0.64565421  0.06500524  0.75000059  1
  O  O13  1  0.85434727  0.56500678  0.75000059  1
  O  O14  1  0.17931859  0.18410574  0.92969058  1
  O  O15  1  0.32068251  0.68410728  0.92969058  1
  U  U16  1  0.97580297  0.07909223  0.25000020  1
  U  U17  1  0.52419851  0.57909377  0.25000020  1
  U  U18  1  0.47580369  0.42090763  0.75000059  1
  U  U19  1  0.02419924  0.92090750  0.75000059  1
