# generated using pymatgen
data_HfTlO3
_symmetry_space_group_name_H-M   'P 1'
_cell_length_a   5.70638279
_cell_length_b   5.81987846
_cell_length_c   8.13270561
_cell_angle_alpha   90.00000000
_cell_angle_beta   90.00000000
_cell_angle_gamma   90.00000000
_symmetry_Int_Tables_number   1
_chemical_formula_structural   HfTlO3
_chemical_formula_sum   'Hf4 Tl4 O12'
_cell_volume   270.09084824
_cell_formula_units_Z   4
loop_
 _symmetry_equiv_pos_site_id
 _symmetry_equiv_pos_as_xyz
  1  'x, y, z'
loop_
 _atom_site_type_symbol
 _atom_site_label
 _atom_site_symmetry_multiplicity
 _atom_site_fract_x
 _atom_site_fract_y
 _atom_site_fract_z
 _atom_site_occupancy
  Hf  Hf0  1  0.49999976  0.00000000  0.00000000  1
  Hf  Hf1  1  0.00000000  0.50000013  0.00000000  1
  Hf  Hf2  1  0.49999976  0.00000000  0.49999965  1
  Hf  Hf3  1  0.00000000  0.50000013  0.49999965  1
  O  O4  1  0.70874846  0.28958337  0.03881857  1
  O  O5  1  0.79125081  0.78958350  0.03881857  1
  O  O6  1  0.07808624  0.48843460  0.25000044  1
  O  O7  1  0.42191351  0.98843473  0.25000044  1
  O  O8  1  0.70874846  0.28958337  0.46118231  1
  O  O9  1  0.79125081  0.78958350  0.46118231  1
  O  O10  1  0.20874870  0.21041677  0.53881822  1
  O  O11  1  0.29125105  0.71041690  0.53881822  1
  O  O12  1  0.57808600  0.01156553  0.75000010  1
  O  O13  1  0.92191327  0.51156567  0.75000010  1
  O  O14  1  0.20874870  0.21041677  0.96118197  1
  O  O15  1  0.29125105  0.71041690  0.96118197  1
  Tl  Tl16  1  0.99409735  0.02588886  0.25000044  1
  Tl  Tl17  1  0.50590367  0.52588899  0.25000044  1
  Tl  Tl18  1  0.49409759  0.47411128  0.75000010  1
  Tl  Tl19  1  0.00590392  0.97411141  0.75000010  1
