# generated using pymatgen
data_HfTlO3
_symmetry_space_group_name_H-M   'P 1'
_cell_length_a   4.07397933
_cell_length_b   4.07397933
_cell_length_c   4.19968913
_cell_angle_alpha   90.00000000
_cell_angle_beta   90.00000000
_cell_angle_gamma   90.00000000
_symmetry_Int_Tables_number   1
_chemical_formula_structural   HfTlO3
_chemical_formula_sum   'Hf1 Tl1 O3'
_cell_volume   69.70353230
_cell_formula_units_Z   1
loop_
 _symmetry_equiv_pos_site_id
 _symmetry_equiv_pos_as_xyz
  1  'x, y, z'
loop_
 _atom_site_type_symbol
 _atom_site_label
 _atom_site_symmetry_multiplicity
 _atom_site_fract_x
 _atom_site_fract_y
 _atom_site_fract_z
 _atom_site_occupancy
  Hf  Hf0  1  0.50000008  0.50000008  0.55962952  1
  O  O1  1  0.50000008  0.50000008  0.08411575  1
  O  O2  1  0.50000008  0.00000000  0.62253894  1
  O  O3  1  0.00000000  0.50000008  0.62253894  1
  Tl  Tl4  1  0.00000000  0.00000000  0.01117702  1
