# generated using pymatgen
data_LiReO3
_symmetry_space_group_name_H-M   'P 1'
_cell_length_a   5.05967737
_cell_length_b   5.30217195
_cell_length_c   7.33629022
_cell_angle_alpha   90.00000000
_cell_angle_beta   90.00000000
_cell_angle_gamma   90.00000000
_symmetry_Int_Tables_number   1
_chemical_formula_structural   LiReO3
_chemical_formula_sum   'Li4 Re4 O12'
_cell_volume   196.81270760
_cell_formula_units_Z   4
loop_
 _symmetry_equiv_pos_site_id
 _symmetry_equiv_pos_as_xyz
  1  'x, y, z'
loop_
 _atom_site_type_symbol
 _atom_site_label
 _atom_site_symmetry_multiplicity
 _atom_site_fract_x
 _atom_site_fract_y
 _atom_site_fract_z
 _atom_site_occupancy
  Li  Li0  1  0.98618936  0.04700904  0.24999965  1
  Li  Li1  1  0.51381142  0.54700980  0.24999965  1
  Li  Li2  1  0.48618910  0.45299172  0.75000032  1
  Li  Li3  1  0.01381116  0.95299059  0.75000032  1
  O  O4  1  0.68570775  0.30699683  0.06145068  1
  O  O5  1  0.81429303  0.80699759  0.06145068  1
  O  O6  1  0.13084233  0.46715573  0.24999965  1
  O  O7  1  0.36915793  0.96715649  0.24999965  1
  O  O8  1  0.68570775  0.30699683  0.43854999  1
  O  O9  1  0.81429303  0.80699759  0.43854999  1
  O  O10  1  0.18570749  0.19300393  0.56144998  1
  O  O11  1  0.31429277  0.69300280  0.56144998  1
  O  O12  1  0.63084259  0.03284314  0.75000032  1
  O  O13  1  0.86915621  0.53284390  0.75000032  1
  O  O14  1  0.18570749  0.19300393  0.93855066  1
  O  O15  1  0.31429277  0.69300280  0.93855066  1
  Re  Re16  1  0.50000026  0.00000000  0.00000000  1
  Re  Re17  1  0.00000000  0.50000076  0.00000000  1
  Re  Re18  1  0.50000026  0.00000000  0.50000067  1
  Re  Re19  1  0.00000000  0.50000076  0.50000067  1
