# generated using pymatgen
data_NdSiO3
_symmetry_space_group_name_H-M   'P 1'
_cell_length_a   5.29735459
_cell_length_b   5.29735459
_cell_length_c   5.29735523
_cell_angle_alpha   60.09933582
_cell_angle_beta   60.09933582
_cell_angle_gamma   60.09934958
_symmetry_Int_Tables_number   1
_chemical_formula_structural   NdSiO3
_chemical_formula_sum   'Nd2 Si2 O6'
_cell_volume   105.35099315
_cell_formula_units_Z   2
loop_
 _symmetry_equiv_pos_site_id
 _symmetry_equiv_pos_as_xyz
  1  'x, y, z'
loop_
 _atom_site_type_symbol
 _atom_site_label
 _atom_site_symmetry_multiplicity
 _atom_site_fract_x
 _atom_site_fract_y
 _atom_site_fract_z
 _atom_site_occupancy
  Nd  Nd0  1  0.24999958  0.24999958  0.24999933  1
  Nd  Nd1  1  0.74999952  0.74999952  0.74999877  1
  O  O2  1  0.74999916  0.25102337  0.24897805  1
  O  O3  1  0.74897603  0.75102304  0.24999897  1
  O  O4  1  0.24897582  0.74999862  0.25102614  1
  O  O5  1  0.75102405  0.25000126  0.74897273  1
  O  O6  1  0.25102384  0.24897684  0.74999991  1
  O  O7  1  0.25000071  0.74897651  0.75102082  1
  Si  Si8  1  0.00000000  0.00000000  0.00000000  1
  Si  Si9  1  0.49999994  0.49999994  0.49999944  1
