# generated using pymatgen
data_KLaO3
_symmetry_space_group_name_H-M   'P 1'
_cell_length_a   6.37232522
_cell_length_b   6.39435207
_cell_length_c   9.00473857
_cell_angle_alpha   90.00000000
_cell_angle_beta   90.00000000
_cell_angle_gamma   90.00000000
_symmetry_Int_Tables_number   1
_chemical_formula_structural   KLaO3
_chemical_formula_sum   'K4 La4 O12'
_cell_volume   366.91510092
_cell_formula_units_Z   4
loop_
 _symmetry_equiv_pos_site_id
 _symmetry_equiv_pos_as_xyz
  1  'x, y, z'
loop_
 _atom_site_type_symbol
 _atom_site_label
 _atom_site_symmetry_multiplicity
 _atom_site_fract_x
 _atom_site_fract_y
 _atom_site_fract_z
 _atom_site_occupancy
  K  K0  1  0.99548591  0.02376629  0.24999948  1
  K  K1  1  0.50451443  0.52376534  0.24999948  1
  K  K2  1  0.49548632  0.47623277  0.74999956  1
  K  K3  1  0.00451327  0.97623339  0.74999956  1
  La  La4  1  0.49999959  0.00000000  0.00000000  1
  La  La5  1  0.00000000  0.50000062  0.00000000  1
  La  La6  1  0.49999959  0.00000000  0.50000008  1
  La  La7  1  0.00000000  0.50000062  0.50000008  1
  O  O8  1  0.71074998  0.28535026  0.03784563  1
  O  O9  1  0.78925036  0.78534931  0.03784563  1
  O  O10  1  0.07347396  0.47747449  0.24999948  1
  O  O11  1  0.42652563  0.97747355  0.24999948  1
  O  O12  1  0.71074998  0.28535026  0.46215445  1
  O  O13  1  0.78925036  0.78534931  0.46215445  1
  O  O14  1  0.21074882  0.21465036  0.53784571  1
  O  O15  1  0.28925077  0.71465098  0.53784571  1
  O  O16  1  0.57347512  0.02252613  0.74999956  1
  O  O17  1  0.92652522  0.52252675  0.74999956  1
  O  O18  1  0.21074882  0.21465036  0.96215453  1
  O  O19  1  0.28925077  0.71465098  0.96215453  1
