# generated using pymatgen
data_TlFeO3
_symmetry_space_group_name_H-M   'P 1'
_cell_length_a   5.41454500
_cell_length_b   5.55344800
_cell_length_c   7.94733700
_cell_angle_alpha   90.00000000
_cell_angle_beta   90.00000000
_cell_angle_gamma   90.00000000
_symmetry_Int_Tables_number   1
_chemical_formula_structural   TlFeO3
_chemical_formula_sum   'Tl4 Fe4 O12'
_cell_volume   238.97160831
_cell_formula_units_Z   4
loop_
 _symmetry_equiv_pos_site_id
 _symmetry_equiv_pos_as_xyz
  1  'x, y, z'
loop_
 _atom_site_type_symbol
 _atom_site_label
 _atom_site_symmetry_multiplicity
 _atom_site_fract_x
 _atom_site_fract_y
 _atom_site_fract_z
 _atom_site_occupancy
  Tl  Tl0  1  0.98280300  0.04957300  0.25000000  1
  Tl  Tl1  1  0.48280300  0.45042700  0.75000000  1
  Tl  Tl2  1  0.51719700  0.54957300  0.25000000  1
  Tl  Tl3  1  0.01719700  0.95042700  0.75000000  1
  Fe  Fe4  1  0.50000000  0.00000000  0.00000000  1
  Fe  Fe5  1  0.00000000  0.50000000  0.00000000  1
  Fe  Fe6  1  0.00000000  0.50000000  0.50000000  1
  Fe  Fe7  1  0.50000000  0.00000000  0.50000000  1
  O  O8  1  0.11397600  0.44577000  0.25000000  1
  O  O9  1  0.61397600  0.05423000  0.75000000  1
  O  O10  1  0.38602400  0.94577000  0.25000000  1
  O  O11  1  0.88602400  0.55423000  0.75000000  1
  O  O12  1  0.69600100  0.30054000  0.06166900  1
  O  O13  1  0.19600100  0.19946000  0.93833100  1
  O  O14  1  0.80399900  0.80054000  0.43833100  1
  O  O15  1  0.30399900  0.69946000  0.56166900  1
  O  O16  1  0.30399900  0.69946000  0.93833100  1
  O  O17  1  0.80399900  0.80054000  0.06166900  1
  O  O18  1  0.19600100  0.19946000  0.56166900  1
  O  O19  1  0.69600100  0.30054000  0.43833100  1
