# generated using pymatgen
data_CeOsO3
_symmetry_space_group_name_H-M   'P 1'
_cell_length_a   5.34222559
_cell_length_b   6.05323661
_cell_length_c   7.82696220
_cell_angle_alpha   90.00000000
_cell_angle_beta   90.00000000
_cell_angle_gamma   90.00000000
_symmetry_Int_Tables_number   1
_chemical_formula_structural   CeOsO3
_chemical_formula_sum   'Ce4 Os4 O12'
_cell_volume   253.10638982
_cell_formula_units_Z   4
loop_
 _symmetry_equiv_pos_site_id
 _symmetry_equiv_pos_as_xyz
  1  'x, y, z'
loop_
 _atom_site_type_symbol
 _atom_site_label
 _atom_site_symmetry_multiplicity
 _atom_site_fract_x
 _atom_site_fract_y
 _atom_site_fract_z
 _atom_site_occupancy
  Ce  Ce0  1  0.96938624  0.07391913  0.24999993  1
  Ce  Ce1  1  0.53061219  0.57391941  0.24999993  1
  Ce  Ce2  1  0.46938677  0.42608115  0.74999979  1
  Ce  Ce3  1  0.03061271  0.92607978  0.74999979  1
  O  O4  1  0.67938539  0.30319813  0.04530493  1
  O  O5  1  0.82061492  0.80319675  0.04530493  1
  O  O6  1  0.10097290  0.46219241  0.24999993  1
  O  O7  1  0.39902658  0.96219269  0.24999993  1
  O  O8  1  0.67938539  0.30319813  0.45469620  1
  O  O9  1  0.82061492  0.80319675  0.45469620  1
  O  O10  1  0.17938591  0.19680215  0.54530479  1
  O  O11  1  0.32061357  0.69680243  0.54530479  1
  O  O12  1  0.60097238  0.03780787  0.74999979  1
  O  O13  1  0.89902793  0.53780815  0.74999979  1
  O  O14  1  0.17938591  0.19680215  0.95469606  1
  O  O15  1  0.32061357  0.69680243  0.95469606  1
  Os  Os16  1  0.49999948  0.00000000  0.00000000  1
  Os  Os17  1  0.00000000  0.50000028  0.00000000  1
  Os  Os18  1  0.49999948  0.00000000  0.49999986  1
  Os  Os19  1  0.00000000  0.50000028  0.49999986  1
