# generated using pymatgen
data_AcSnO3
_symmetry_space_group_name_H-M   'P 1'
_cell_length_a   5.94228158
_cell_length_b   6.20768477
_cell_length_c   8.55125994
_cell_angle_alpha   90.00000000
_cell_angle_beta   90.00000000
_cell_angle_gamma   90.00000000
_symmetry_Int_Tables_number   1
_chemical_formula_structural   AcSnO3
_chemical_formula_sum   'Ac4 Sn4 O12'
_cell_volume   315.43725946
_cell_formula_units_Z   4
loop_
 _symmetry_equiv_pos_site_id
 _symmetry_equiv_pos_as_xyz
  1  'x, y, z'
loop_
 _atom_site_type_symbol
 _atom_site_label
 _atom_site_symmetry_multiplicity
 _atom_site_fract_x
 _atom_site_fract_y
 _atom_site_fract_z
 _atom_site_occupancy
  Ac  Ac0  1  0.98384937  0.05562782  0.24999942  1
  Ac  Ac1  1  0.51615023  0.55562905  0.24999942  1
  Ac  Ac2  1  0.48384950  0.44437018  0.74999942  1
  Ac  Ac3  1  0.01615036  0.94436980  0.74999942  1
  O  O4  1  0.69929537  0.29884894  0.06002741  1
  O  O5  1  0.80070423  0.79884694  0.06002741  1
  O  O6  1  0.11592517  0.45161282  0.24999942  1
  O  O7  1  0.38407470  0.95161404  0.24999942  1
  O  O8  1  0.69929537  0.29884894  0.43997259  1
  O  O9  1  0.80070423  0.79884694  0.43997259  1
  O  O10  1  0.19929550  0.20115229  0.56002625  1
  O  O11  1  0.30070436  0.70115190  0.56002625  1
  O  O12  1  0.61592504  0.04838680  0.74999942  1
  O  O13  1  0.88407456  0.54838803  0.74999942  1
  O  O14  1  0.19929550  0.20115229  0.93997259  1
  O  O15  1  0.30070436  0.70115190  0.93997259  1
  Sn  Sn16  1  0.49999987  0.00000000  0.00000000  1
  Sn  Sn17  1  0.00000000  0.49999962  0.00000000  1
  Sn  Sn18  1  0.49999987  0.00000000  0.50000000  1
  Sn  Sn19  1  0.00000000  0.49999962  0.50000000  1
