# generated using pymatgen
data_PrWO3
_symmetry_space_group_name_H-M   'P 1'
_cell_length_a   5.37079334
_cell_length_b   6.04881099
_cell_length_c   7.83619927
_cell_angle_alpha   90.00000000
_cell_angle_beta   90.00000000
_cell_angle_gamma   90.00000000
_symmetry_Int_Tables_number   1
_chemical_formula_structural   PrWO3
_chemical_formula_sum   'Pr4 W4 O12'
_cell_volume   254.57393029
_cell_formula_units_Z   4
loop_
 _symmetry_equiv_pos_site_id
 _symmetry_equiv_pos_as_xyz
  1  'x, y, z'
loop_
 _atom_site_type_symbol
 _atom_site_label
 _atom_site_symmetry_multiplicity
 _atom_site_fract_x
 _atom_site_fract_y
 _atom_site_fract_z
 _atom_site_occupancy
  O  O0  1  0.68852584  0.29543161  0.04103265  1
  O  O1  1  0.81147416  0.79543236  0.04103265  1
  O  O2  1  0.10278928  0.47287971  0.25000002  1
  O  O3  1  0.39721134  0.97287880  0.25000002  1
  O  O4  1  0.68852584  0.29543161  0.45896740  1
  O  O5  1  0.81147416  0.79543236  0.45896740  1
  O  O6  1  0.18852522  0.20456748  0.54103269  1
  O  O7  1  0.31147354  0.70456822  0.54103269  1
  O  O8  1  0.60278804  0.02712103  0.75000007  1
  O  O9  1  0.89721196  0.52712178  0.75000007  1
  O  O10  1  0.18852522  0.20456748  0.95896745  1
  O  O11  1  0.31147354  0.70456822  0.95896745  1
  Pr  Pr12  1  0.96808231  0.07736066  0.25000002  1
  Pr  Pr13  1  0.53191769  0.57735975  0.25000002  1
  Pr  Pr14  1  0.46808169  0.42264009  0.75000007  1
  Pr  Pr15  1  0.03191893  0.92263918  0.75000007  1
  W  W16  1  0.50000062  0.00000000  0.00000000  1
  W  W17  1  0.00000000  0.50000074  0.00000000  1
  W  W18  1  0.50000062  0.00000000  0.50000005  1
  W  W19  1  0.00000000  0.50000074  0.50000005  1
