# generated using pymatgen
data_GdMgO3
_symmetry_space_group_name_H-M   'P 1'
_cell_length_a   5.34677748
_cell_length_b   5.73169651
_cell_length_c   7.55767358
_cell_angle_alpha   90.00000000
_cell_angle_beta   90.00000000
_cell_angle_gamma   90.00000000
_symmetry_Int_Tables_number   1
_chemical_formula_structural   GdMgO3
_chemical_formula_sum   'Gd4 Mg4 O12'
_cell_volume   231.61326429
_cell_formula_units_Z   4
loop_
 _symmetry_equiv_pos_site_id
 _symmetry_equiv_pos_as_xyz
  1  'x, y, z'
loop_
 _atom_site_type_symbol
 _atom_site_label
 _atom_site_symmetry_multiplicity
 _atom_site_fract_x
 _atom_site_fract_y
 _atom_site_fract_z
 _atom_site_occupancy
  Gd  Gd0  1  0.97683699  0.07558321  0.25000021  1
  Gd  Gd1  1  0.52316185  0.57558177  0.25000021  1
  Gd  Gd2  1  0.47683862  0.42441884  0.75000064  1
  Gd  Gd3  1  0.02316161  0.92441740  0.75000064  1
  Mg  Mg4  1  0.50000024  0.00000000  0.00000000  1
  Mg  Mg5  1  0.00000000  0.50000030  0.00000000  1
  Mg  Mg6  1  0.50000024  0.00000000  0.49999910  1
  Mg  Mg7  1  0.00000000  0.50000030  0.49999910  1
  O  O8  1  0.68895143  0.30276551  0.05944025  1
  O  O9  1  0.81104740  0.80276581  0.05944025  1
  O  O10  1  0.12020137  0.45539920  0.25000021  1
  O  O11  1  0.37980073  0.95539950  0.25000021  1
  O  O12  1  0.68895143  0.30276551  0.44055885  1
  O  O13  1  0.81104740  0.80276581  0.44055885  1
  O  O14  1  0.18895307  0.19723654  0.55944200  1
  O  O15  1  0.31104717  0.69723510  0.55944200  1
  O  O16  1  0.62020161  0.04460111  0.75000064  1
  O  O17  1  0.87980097  0.54459967  0.75000064  1
  O  O18  1  0.18895307  0.19723654  0.94055928  1
  O  O19  1  0.31104717  0.69723510  0.94055928  1
