# generated using pymatgen
data_NbPbO3
_symmetry_space_group_name_H-M   'P 1'
_cell_length_a   5.73935316
_cell_length_b   5.76355220
_cell_length_c   8.14808667
_cell_angle_alpha   90.00000000
_cell_angle_beta   90.00000000
_cell_angle_gamma   90.00000000
_symmetry_Int_Tables_number   1
_chemical_formula_structural   NbPbO3
_chemical_formula_sum   'Nb4 Pb4 O12'
_cell_volume   269.53106032
_cell_formula_units_Z   4
loop_
 _symmetry_equiv_pos_site_id
 _symmetry_equiv_pos_as_xyz
  1  'x, y, z'
loop_
 _atom_site_type_symbol
 _atom_site_label
 _atom_site_symmetry_multiplicity
 _atom_site_fract_x
 _atom_site_fract_y
 _atom_site_fract_z
 _atom_site_occupancy
  Nb  Nb0  1  0.50000060  0.00000000  0.00000000  1
  Nb  Nb1  1  0.00000000  0.50000068  0.00000000  1
  Nb  Nb2  1  0.50000060  0.00000000  0.50000082  1
  Nb  Nb3  1  0.00000000  0.50000068  0.50000082  1
  O  O4  1  0.72788865  0.27216202  0.01782259  1
  O  O5  1  0.77211140  0.77216270  0.01782259  1
  O  O6  1  0.03508932  0.49587301  0.24999980  1
  O  O7  1  0.46491128  0.99587369  0.24999980  1
  O  O8  1  0.72788865  0.27216202  0.48217700  1
  O  O9  1  0.77211140  0.77216270  0.48217700  1
  O  O10  1  0.22788805  0.22783692  0.51782218  1
  O  O11  1  0.27211080  0.72783760  0.51782218  1
  O  O12  1  0.53508817  0.00412766  0.75000061  1
  O  O13  1  0.96491187  0.50412660  0.75000061  1
  O  O14  1  0.22788805  0.22783692  0.98217782  1
  O  O15  1  0.27211080  0.72783760  0.98217782  1
  Pb  Pb16  1  0.99867700  0.01527357  0.24999980  1
  Pb  Pb17  1  0.50132304  0.51527251  0.24999980  1
  Pb  Pb18  1  0.49867640  0.48472711  0.75000061  1
  Pb  Pb19  1  0.00132245  0.98472605  0.75000061  1
