# generated using pymatgen
data_GdAlO3
_symmetry_space_group_name_H-M   'P 1'
_cell_length_a   5.28457100
_cell_length_b   5.37112600
_cell_length_c   7.51058500
_cell_angle_alpha   90.00000000
_cell_angle_beta   90.00000000
_cell_angle_gamma   90.00000000
_symmetry_Int_Tables_number   1
_chemical_formula_structural   GdAlO3
_chemical_formula_sum   'Gd4 Al4 O12'
_cell_volume   213.18117089
_cell_formula_units_Z   4
loop_
 _symmetry_equiv_pos_site_id
 _symmetry_equiv_pos_as_xyz
  1  'x, y, z'
loop_
 _atom_site_type_symbol
 _atom_site_label
 _atom_site_symmetry_multiplicity
 _atom_site_fract_x
 _atom_site_fract_y
 _atom_site_fract_z
 _atom_site_occupancy
  Gd  Gd0  1  0.01007100  0.95642700  0.75000000  1
  Gd  Gd1  1  0.51007100  0.54357300  0.25000000  1
  Gd  Gd2  1  0.48992900  0.45642700  0.75000000  1
  Gd  Gd3  1  0.98992900  0.04357300  0.25000000  1
  Al  Al4  1  0.50000000  0.00000000  0.50000000  1
  Al  Al5  1  0.00000000  0.50000000  0.50000000  1
  Al  Al6  1  0.00000000  0.50000000  0.00000000  1
  Al  Al7  1  0.50000000  0.00000000  0.00000000  1
  O  O8  1  0.71290300  0.28759200  0.45898600  1
  O  O9  1  0.21290300  0.21240800  0.54101400  1
  O  O10  1  0.78709700  0.78759200  0.04101400  1
  O  O11  1  0.28709700  0.71240800  0.95898600  1
  O  O12  1  0.28709700  0.71240800  0.54101400  1
  O  O13  1  0.78709700  0.78759200  0.45898600  1
  O  O14  1  0.21290300  0.21240800  0.95898600  1
  O  O15  1  0.71290300  0.28759200  0.04101400  1
  O  O16  1  0.07718100  0.48259400  0.25000000  1
  O  O17  1  0.57718100  0.01740600  0.75000000  1
  O  O18  1  0.42281900  0.98259400  0.25000000  1
  O  O19  1  0.92281900  0.51740600  0.75000000  1
