# generated using pymatgen
data_SmMoO3
_symmetry_space_group_name_H-M   'P 1'
_cell_length_a   5.47037236
_cell_length_b   5.88261488
_cell_length_c   7.88658685
_cell_angle_alpha   90.00000000
_cell_angle_beta   90.00000000
_cell_angle_gamma   90.00000000
_symmetry_Int_Tables_number   1
_chemical_formula_structural   SmMoO3
_chemical_formula_sum   'Sm4 Mo4 O12'
_cell_volume   253.79110511
_cell_formula_units_Z   4
loop_
 _symmetry_equiv_pos_site_id
 _symmetry_equiv_pos_as_xyz
  1  'x, y, z'
loop_
 _atom_site_type_symbol
 _atom_site_label
 _atom_site_symmetry_multiplicity
 _atom_site_fract_x
 _atom_site_fract_y
 _atom_site_fract_z
 _atom_site_occupancy
  Mo  Mo0  1  0.50000070  0.00000000  0.00000000  1
  Mo  Mo1  1  0.00000000  0.50000044  0.00000000  1
  Mo  Mo2  1  0.50000070  0.00000000  0.49999957  1
  Mo  Mo3  1  0.00000000  0.50000044  0.49999957  1
  O  O4  1  0.68409054  0.30693323  0.06028083  1
  O  O5  1  0.81590972  0.80693367  0.06028083  1
  O  O6  1  0.12448878  0.44943279  0.25000042  1
  O  O7  1  0.37551191  0.94943322  0.25000042  1
  O  O8  1  0.68409054  0.30693323  0.43971874  1
  O  O9  1  0.81590972  0.80693367  0.43971874  1
  O  O10  1  0.18408984  0.19306720  0.56028166  1
  O  O11  1  0.31591085  0.69306594  0.56028166  1
  O  O12  1  0.62448948  0.05056765  0.74999998  1
  O  O13  1  0.87551078  0.55056808  0.74999998  1
  O  O14  1  0.18408984  0.19306720  0.93971957  1
  O  O15  1  0.31591085  0.69306594  0.93971957  1
  Sm  Sm16  1  0.97816193  0.07163991  0.25000042  1
  Sm  Sm17  1  0.52183833  0.57164034  0.25000042  1
  Sm  Sm18  1  0.47816123  0.42836053  0.74999998  1
  Sm  Sm19  1  0.02183946  0.92835926  0.74999998  1
