# generated using pymatgen
data_HgMoO3
_symmetry_space_group_name_H-M   'P 1'
_cell_length_a   5.58583399
_cell_length_b   5.58583399
_cell_length_c   5.58583389
_cell_angle_alpha   60.03389050
_cell_angle_beta   60.03389050
_cell_angle_gamma   60.03389357
_symmetry_Int_Tables_number   1
_chemical_formula_structural   HgMoO3
_chemical_formula_sum   'Hg2 Mo2 O6'
_cell_volume   123.33393343
_cell_formula_units_Z   2
loop_
 _symmetry_equiv_pos_site_id
 _symmetry_equiv_pos_as_xyz
  1  'x, y, z'
loop_
 _atom_site_type_symbol
 _atom_site_label
 _atom_site_symmetry_multiplicity
 _atom_site_fract_x
 _atom_site_fract_y
 _atom_site_fract_z
 _atom_site_occupancy
  Hg  Hg0  1  0.25000041  0.25000041  0.25000041  1
  Hg  Hg1  1  0.74999978  0.74999978  0.74999978  1
  Mo  Mo2  1  0.00000000  0.00000000  0.00000000  1
  Mo  Mo3  1  0.50000010  0.50000010  0.50000010  1
  O  O4  1  0.74999881  0.25088411  0.24911768  1
  O  O5  1  0.74911531  0.75088317  0.25000149  1
  O  O6  1  0.24911512  0.75000125  0.25088423  1
  O  O7  1  0.75088507  0.24999894  0.74911597  1
  O  O8  1  0.25088488  0.24911703  0.74999870  1
  O  O9  1  0.25000138  0.74911608  0.75088251  1
