# generated using pymatgen
data_TaCuO3
_symmetry_space_group_name_H-M   'P 1'
_cell_length_a   5.23324061
_cell_length_b   5.45641606
_cell_length_c   7.64318407
_cell_angle_alpha   90.00000000
_cell_angle_beta   90.00000000
_cell_angle_gamma   90.00000000
_symmetry_Int_Tables_number   1
_chemical_formula_structural   TaCuO3
_chemical_formula_sum   'Ta4 Cu4 O12'
_cell_volume   218.24911971
_cell_formula_units_Z   4
loop_
 _symmetry_equiv_pos_site_id
 _symmetry_equiv_pos_as_xyz
  1  'x, y, z'
loop_
 _atom_site_type_symbol
 _atom_site_label
 _atom_site_symmetry_multiplicity
 _atom_site_fract_x
 _atom_site_fract_y
 _atom_site_fract_z
 _atom_site_occupancy
  Cu  Cu0  1  0.00951609  0.98116346  0.24999921  1
  Cu  Cu1  1  0.49048385  0.48116382  0.24999921  1
  Cu  Cu2  1  0.50951603  0.51883873  0.74999895  1
  Cu  Cu3  1  0.99048200  0.01883837  0.74999895  1
  O  O4  1  0.68619815  0.30838374  0.05438833  1
  O  O5  1  0.81380168  0.80838410  0.05438833  1
  O  O6  1  0.10602799  0.46894518  0.24999921  1
  O  O7  1  0.39397195  0.96894554  0.24999921  1
  O  O8  1  0.68619815  0.30838374  0.44561141  1
  O  O9  1  0.81380168  0.80838410  0.44561141  1
  O  O10  1  0.18619820  0.19161662  0.55438937  1
  O  O11  1  0.31380174  0.69161515  0.55438937  1
  O  O12  1  0.60602793  0.03105518  0.74999895  1
  O  O13  1  0.89397189  0.53105554  0.74999895  1
  O  O14  1  0.18619820  0.19161662  0.94561114  1
  O  O15  1  0.31380174  0.69161515  0.94561114  1
  Ta  Ta16  1  0.49999994  0.00000000  0.00000000  1
  Ta  Ta17  1  0.00000000  0.50000036  0.00000000  1
  Ta  Ta18  1  0.49999994  0.00000000  0.49999973  1
  Ta  Ta19  1  0.00000000  0.50000036  0.49999973  1
