# generated using pymatgen
data_KCeO3
_symmetry_space_group_name_H-M   'P 1'
_cell_length_a   6.43946513
_cell_length_b   6.46396982
_cell_length_c   9.04836490
_cell_angle_alpha   90.00000000
_cell_angle_beta   90.00000000
_cell_angle_gamma   90.00000000
_symmetry_Int_Tables_number   1
_chemical_formula_structural   KCeO3
_chemical_formula_sum   'K4 Ce4 O12'
_cell_volume   376.63373908
_cell_formula_units_Z   4
loop_
 _symmetry_equiv_pos_site_id
 _symmetry_equiv_pos_as_xyz
  1  'x, y, z'
loop_
 _atom_site_type_symbol
 _atom_site_label
 _atom_site_symmetry_multiplicity
 _atom_site_fract_x
 _atom_site_fract_y
 _atom_site_fract_z
 _atom_site_occupancy
  Ce  Ce0  1  0.49999960  0.00000000  0.00000000  1
  Ce  Ce1  1  0.00000000  0.50000079  0.00000000  1
  Ce  Ce2  1  0.49999960  0.00000000  0.49999973  1
  Ce  Ce3  1  0.00000000  0.50000079  0.49999973  1
  K  K4  1  0.99485126  0.02853974  0.24999986  1
  K  K5  1  0.50514910  0.52853898  0.24999986  1
  K  K6  1  0.49485166  0.47146105  0.74999959  1
  K  K7  1  0.00514794  0.97146029  0.74999959  1
  O  O8  1  0.70891757  0.28767461  0.04273258  1
  O  O9  1  0.79108278  0.78767540  0.04273258  1
  O  O10  1  0.08424613  0.46358354  0.24999986  1
  O  O11  1  0.41575503  0.96358433  0.24999986  1
  O  O12  1  0.70891757  0.28767461  0.45726825  1
  O  O13  1  0.79108278  0.78767540  0.45726825  1
  O  O14  1  0.20891642  0.21232463  0.54273231  1
  O  O15  1  0.29108318  0.71232542  0.54273231  1
  O  O16  1  0.58424573  0.03641570  0.74999959  1
  O  O17  1  0.91575463  0.53641649  0.74999959  1
  O  O18  1  0.20891642  0.21232463  0.95726798  1
  O  O19  1  0.29108318  0.71232542  0.95726798  1
