# generated using pymatgen
data_RbLaO3
_symmetry_space_group_name_H-M   'P 1'
_cell_length_a   6.49046469
_cell_length_b   6.50480829
_cell_length_c   9.19288598
_cell_angle_alpha   90.00000000
_cell_angle_beta   90.00000000
_cell_angle_gamma   90.00000000
_symmetry_Int_Tables_number   1
_chemical_formula_structural   RbLaO3
_chemical_formula_sum   'Rb4 La4 O12'
_cell_volume   388.11655371
_cell_formula_units_Z   4
loop_
 _symmetry_equiv_pos_site_id
 _symmetry_equiv_pos_as_xyz
  1  'x, y, z'
loop_
 _atom_site_type_symbol
 _atom_site_label
 _atom_site_symmetry_multiplicity
 _atom_site_fract_x
 _atom_site_fract_y
 _atom_site_fract_z
 _atom_site_occupancy
  La  La0  1  0.49999964  0.00000000  0.00000000  1
  La  La1  1  0.00000000  0.50000090  0.00000000  1
  La  La2  1  0.49999964  0.00000000  0.49999967  1
  La  La3  1  0.00000000  0.50000090  0.49999967  1
  O  O4  1  0.74144614  0.25849955  0.00402268  1
  O  O5  1  0.75855432  0.75849891  0.00402268  1
  O  O6  1  0.48963674  0.00086090  0.24999984  1
  O  O7  1  0.01036598  0.50086180  0.24999984  1
  O  O8  1  0.74144614  0.25849955  0.49597700  1
  O  O9  1  0.75855432  0.75849891  0.49597700  1
  O  O10  1  0.24144650  0.24149982  0.50402344  1
  O  O11  1  0.25855314  0.74150072  0.50402344  1
  O  O12  1  0.98963638  0.49913846  0.74999951  1
  O  O13  1  0.51036561  0.99913936  0.74999951  1
  O  O14  1  0.24144650  0.24149982  0.99597667  1
  O  O15  1  0.25855314  0.74150072  0.99597667  1
  Rb  Rb16  1  0.00062399  0.00358043  0.24999984  1
  Rb  Rb17  1  0.49937565  0.50357979  0.24999984  1
  Rb  Rb18  1  0.50062363  0.49642047  0.74999951  1
  Rb  Rb19  1  0.99937529  0.99641830  0.74999951  1
