# generated using pymatgen
data_MnGeO3
_symmetry_space_group_name_H-M   'P 1'
_cell_length_a   5.09027414
_cell_length_b   5.23737482
_cell_length_c   7.33359501
_cell_angle_alpha   90.00000000
_cell_angle_beta   90.00000000
_cell_angle_gamma   90.00000000
_symmetry_Int_Tables_number   1
_chemical_formula_structural   MnGeO3
_chemical_formula_sum   'Mn4 Ge4 O12'
_cell_volume   195.51124920
_cell_formula_units_Z   4
loop_
 _symmetry_equiv_pos_site_id
 _symmetry_equiv_pos_as_xyz
  1  'x, y, z'
loop_
 _atom_site_type_symbol
 _atom_site_label
 _atom_site_symmetry_multiplicity
 _atom_site_fract_x
 _atom_site_fract_y
 _atom_site_fract_z
 _atom_site_occupancy
  Ge  Ge0  1  0.50000058  0.00000000  0.00000000  1
  Ge  Ge1  1  0.00000000  0.50000049  0.00000000  1
  Ge  Ge2  1  0.50000058  0.00000000  0.50000034  1
  Ge  Ge3  1  0.00000000  0.50000049  0.50000034  1
  Mn  Mn4  1  0.98633980  0.05354591  0.25000017  1
  Mn  Mn5  1  0.51365996  0.55354640  0.25000017  1
  Mn  Mn6  1  0.48633923  0.44645268  0.75000051  1
  Mn  Mn7  1  0.01365938  0.94645317  0.75000051  1
  O  O8  1  0.69368563  0.30127880  0.05662162  1
  O  O9  1  0.80631414  0.80127929  0.05662162  1
  O  O10  1  0.10946365  0.46012747  0.25000017  1
  O  O11  1  0.39053692  0.96012605  0.25000017  1
  O  O12  1  0.69368563  0.30127880  0.44337872  1
  O  O13  1  0.80631414  0.80127929  0.44337872  1
  O  O14  1  0.19368505  0.19872169  0.55662196  1
  O  O15  1  0.30631356  0.69872028  0.55662196  1
  O  O16  1  0.60946423  0.03987303  0.75000051  1
  O  O17  1  0.89053553  0.53987352  0.75000051  1
  O  O18  1  0.19368505  0.19872169  0.94337770  1
  O  O19  1  0.30631356  0.69872028  0.94337770  1
