# generated using pymatgen
data_YbOsO3
_symmetry_space_group_name_H-M   'P 1'
_cell_length_a   5.18183514
_cell_length_b   5.65451165
_cell_length_c   7.57408354
_cell_angle_alpha   90.00000000
_cell_angle_beta   90.00000000
_cell_angle_gamma   90.00000000
_symmetry_Int_Tables_number   1
_chemical_formula_structural   YbOsO3
_chemical_formula_sum   'Yb4 Os4 O12'
_cell_volume   221.92630655
_cell_formula_units_Z   4
loop_
 _symmetry_equiv_pos_site_id
 _symmetry_equiv_pos_as_xyz
  1  'x, y, z'
loop_
 _atom_site_type_symbol
 _atom_site_label
 _atom_site_symmetry_multiplicity
 _atom_site_fract_x
 _atom_site_fract_y
 _atom_site_fract_z
 _atom_site_occupancy
  O  O0  1  0.68598091  0.30336837  0.05379397  1
  O  O1  1  0.81402049  0.80336911  0.05379397  1
  O  O2  1  0.11320893  0.46182591  0.24999988  1
  O  O3  1  0.38679154  0.96182488  0.24999988  1
  O  O4  1  0.68598091  0.30336837  0.44620712  1
  O  O5  1  0.81402049  0.80336911  0.44620712  1
  O  O6  1  0.18597851  0.19663060  0.55379373  1
  O  O7  1  0.31402002  0.69663134  0.55379373  1
  O  O8  1  0.61320747  0.03817483  0.74999965  1
  O  O9  1  0.88679201  0.53817380  0.74999965  1
  O  O10  1  0.18597851  0.19663060  0.94620557  1
  O  O11  1  0.31402002  0.69663134  0.94620557  1
  Os  Os12  1  0.50000047  0.00000000  0.00000000  1
  Os  Os13  1  0.00000000  0.50000074  0.00000000  1
  Os  Os14  1  0.50000047  0.00000000  0.50000109  1
  Os  Os15  1  0.00000000  0.50000074  0.50000109  1
  Yb  Yb16  1  0.97228682  0.07411073  0.24999988  1
  Yb  Yb17  1  0.52771266  0.57410970  0.24999988  1
  Yb  Yb18  1  0.47228635  0.42589001  0.74999965  1
  Yb  Yb19  1  0.02771219  0.92588898  0.74999965  1
