# generated using pymatgen
data_HoZnO3
_symmetry_space_group_name_H-M   'P 1'
_cell_length_a   5.22722818
_cell_length_b   5.74641543
_cell_length_c   7.44250138
_cell_angle_alpha   90.00000000
_cell_angle_beta   90.00000000
_cell_angle_gamma   90.00000000
_symmetry_Int_Tables_number   1
_chemical_formula_structural   HoZnO3
_chemical_formula_sum   'Ho4 Zn4 O12'
_cell_volume   223.55655143
_cell_formula_units_Z   4
loop_
 _symmetry_equiv_pos_site_id
 _symmetry_equiv_pos_as_xyz
  1  'x, y, z'
loop_
 _atom_site_type_symbol
 _atom_site_label
 _atom_site_symmetry_multiplicity
 _atom_site_fract_x
 _atom_site_fract_y
 _atom_site_fract_z
 _atom_site_occupancy
  Ho  Ho0  1  0.97576953  0.08637559  0.25000063  1
  Ho  Ho1  1  0.52423003  0.58637598  0.25000063  1
  Ho  Ho2  1  0.47576840  0.41362481  0.75000053  1
  Ho  Ho3  1  0.02423082  0.91362521  0.75000053  1
  O  O4  1  0.69270747  0.31717512  0.05724016  1
  O  O5  1  0.80729210  0.81717378  0.05724016  1
  O  O6  1  0.12022433  0.46131715  0.25000063  1
  O  O7  1  0.37977680  0.96131755  0.25000063  1
  O  O8  1  0.69270747  0.31717512  0.44275974  1
  O  O9  1  0.80729210  0.81717378  0.44275974  1
  O  O10  1  0.19270634  0.18282354  0.55724007  1
  O  O11  1  0.30729288  0.68282394  0.55724007  1
  O  O12  1  0.62022355  0.03868325  0.75000053  1
  O  O13  1  0.87977602  0.53868190  0.75000053  1
  O  O14  1  0.19270634  0.18282354  0.94275965  1
  O  O15  1  0.30729288  0.68282394  0.94275965  1
  Zn  Zn16  1  0.49999922  0.00000000  0.00000000  1
  Zn  Zn17  1  0.00000000  0.50000040  0.00000000  1
  Zn  Zn18  1  0.49999922  0.00000000  0.49999991  1
  Zn  Zn19  1  0.00000000  0.50000040  0.49999991  1
