# generated using pymatgen
data_CeNbO3
_symmetry_space_group_name_H-M   'P 1'
_cell_length_a   5.58331130
_cell_length_b   6.03663823
_cell_length_c   7.96822436
_cell_angle_alpha   90.00000000
_cell_angle_beta   90.00000000
_cell_angle_gamma   90.00000000
_symmetry_Int_Tables_number   1
_chemical_formula_structural   CeNbO3
_chemical_formula_sum   'Ce4 Nb4 O12'
_cell_volume   268.56446395
_cell_formula_units_Z   4
loop_
 _symmetry_equiv_pos_site_id
 _symmetry_equiv_pos_as_xyz
  1  'x, y, z'
loop_
 _atom_site_type_symbol
 _atom_site_label
 _atom_site_symmetry_multiplicity
 _atom_site_fract_x
 _atom_site_fract_y
 _atom_site_fract_z
 _atom_site_occupancy
  Ce  Ce0  1  0.97245339  0.07531675  0.25000049  1
  Ce  Ce1  1  0.52754537  0.57531690  0.25000049  1
  Ce  Ce2  1  0.47245440  0.42468339  0.75000022  1
  Ce  Ce3  1  0.02754638  0.92468354  0.75000022  1
  Nb  Nb4  1  0.50000078  0.00000000  0.00000000  1
  Nb  Nb5  1  0.00000000  0.50000015  0.00000000  1
  Nb  Nb6  1  0.50000078  0.00000000  0.49999973  1
  Nb  Nb7  1  0.00000000  0.50000015  0.49999973  1
  O  O8  1  0.69384453  0.29257344  0.04459714  1
  O  O9  1  0.80615423  0.79257358  0.04459714  1
  O  O10  1  0.11866793  0.46131305  0.25000049  1
  O  O11  1  0.38133106  0.96131320  0.25000049  1
  O  O12  1  0.69384453  0.29257344  0.45540259  1
  O  O13  1  0.80615423  0.79257358  0.45540259  1
  O  O14  1  0.19384554  0.20742671  0.54459686  1
  O  O15  1  0.30615524  0.70742686  0.54459686  1
  O  O16  1  0.61866871  0.03868710  0.75000022  1
  O  O17  1  0.88133184  0.53868724  0.75000022  1
  O  O18  1  0.19384554  0.20742671  0.95540357  1
  O  O19  1  0.30615524  0.70742686  0.95540357  1
