# generated using pymatgen
data_PmGaO3
_symmetry_space_group_name_H-M   'P 1'
_cell_length_a   3.69416445
_cell_length_b   3.69416445
_cell_length_c   4.53898341
_cell_angle_alpha   90.00000000
_cell_angle_beta   90.00000000
_cell_angle_gamma   90.00000000
_symmetry_Int_Tables_number   1
_chemical_formula_structural   PmGaO3
_chemical_formula_sum   'Pm1 Ga1 O3'
_cell_volume   61.94283038
_cell_formula_units_Z   1
loop_
 _symmetry_equiv_pos_site_id
 _symmetry_equiv_pos_as_xyz
  1  'x, y, z'
loop_
 _atom_site_type_symbol
 _atom_site_label
 _atom_site_symmetry_multiplicity
 _atom_site_fract_x
 _atom_site_fract_y
 _atom_site_fract_z
 _atom_site_occupancy
  Ga  Ga0  1  0.50000210  0.50000210  0.83651110  1
  O  O1  1  0.50000210  0.50000210  0.24548228  1
  O  O2  1  0.50000210  0.00000000  0.71397926  1
  O  O3  1  0.00000000  0.50000210  0.71397926  1
  Pm  Pm4  1  0.00000000  0.00000000  0.39004989  1
