# generated using pymatgen
data_PmGaO3
_symmetry_space_group_name_H-M   'P 1'
_cell_length_a   5.38924569
_cell_length_b   5.56450048
_cell_length_c   7.69864445
_cell_angle_alpha   90.00000000
_cell_angle_beta   90.00000000
_cell_angle_gamma   90.00000000
_symmetry_Int_Tables_number   1
_chemical_formula_structural   PmGaO3
_chemical_formula_sum   'Pm4 Ga4 O12'
_cell_volume   230.87049273
_cell_formula_units_Z   4
loop_
 _symmetry_equiv_pos_site_id
 _symmetry_equiv_pos_as_xyz
  1  'x, y, z'
loop_
 _atom_site_type_symbol
 _atom_site_label
 _atom_site_symmetry_multiplicity
 _atom_site_fract_x
 _atom_site_fract_y
 _atom_site_fract_z
 _atom_site_occupancy
  Ga  Ga0  1  0.49999947  0.00000000  0.00000000  1
  Ga  Ga1  1  0.00000000  0.49999996  0.00000000  1
  Ga  Ga2  1  0.49999947  0.00000000  0.49999971  1
  Ga  Ga3  1  0.00000000  0.49999996  0.49999971  1
  O  O4  1  0.70404101  0.29570848  0.04755772  1
  O  O5  1  0.79595740  0.79570664  0.04755772  1
  O  O6  1  0.08987343  0.47678673  0.24999986  1
  O  O7  1  0.41012604  0.97678849  0.24999986  1
  O  O8  1  0.70404101  0.29570848  0.45244069  1
  O  O9  1  0.79595740  0.79570664  0.45244069  1
  O  O10  1  0.20404154  0.20429327  0.54755873  1
  O  O11  1  0.29595793  0.70429143  0.54755873  1
  O  O12  1  0.58987290  0.02321143  0.74999957  1
  O  O13  1  0.91012737  0.52321318  0.74999957  1
  O  O14  1  0.20404154  0.20429327  0.95244040  1
  O  O15  1  0.29595793  0.70429143  0.95244040  1
  Pm  Pm16  1  0.98562216  0.05586126  0.24999986  1
  Pm  Pm17  1  0.51437811  0.55586122  0.24999986  1
  Pm  Pm18  1  0.48562269  0.44413870  0.74999957  1
  Pm  Pm19  1  0.01437864  0.94413866  0.74999957  1
