# generated using pymatgen
data_CeHoO3
_symmetry_space_group_name_H-M   'P 1'
_cell_length_a   5.83606313
_cell_length_b   6.07560399
_cell_length_c   8.45618663
_cell_angle_alpha   90.00000000
_cell_angle_beta   90.00000000
_cell_angle_gamma   90.00000000
_symmetry_Int_Tables_number   1
_chemical_formula_structural   CeHoO3
_chemical_formula_sum   'Ce4 Ho4 O12'
_cell_volume   299.83615416
_cell_formula_units_Z   4
loop_
 _symmetry_equiv_pos_site_id
 _symmetry_equiv_pos_as_xyz
  1  'x, y, z'
loop_
 _atom_site_type_symbol
 _atom_site_label
 _atom_site_symmetry_multiplicity
 _atom_site_fract_x
 _atom_site_fract_y
 _atom_site_fract_z
 _atom_site_occupancy
  Ce  Ce0  1  0.98285092  0.05317496  0.25000040  1
  Ce  Ce1  1  0.51714999  0.55317628  0.25000040  1
  Ce  Ce2  1  0.48285119  0.44682471  0.75000000  1
  Ce  Ce3  1  0.01714855  0.94682438  0.75000000  1
  Ho  Ho4  1  0.49999973  0.00000000  0.00000000  1
  Ho  Ho5  1  0.00000000  0.49999967  0.00000000  1
  Ho  Ho6  1  0.49999973  0.00000000  0.49999961  1
  Ho  Ho7  1  0.00000000  0.49999967  0.49999961  1
  O  O8  1  0.69242568  0.30504128  0.06839490  1
  O  O9  1  0.80757351  0.80504259  0.06839490  1
  O  O10  1  0.12919840  0.44141290  0.25000040  1
  O  O11  1  0.37079962  0.94141258  0.25000040  1
  O  O12  1  0.69242568  0.30504128  0.43160471  1
  O  O13  1  0.80757351  0.80504259  0.43160471  1
  O  O14  1  0.19242595  0.19495839  0.56839569  1
  O  O15  1  0.30757207  0.69495642  0.56839569  1
  O  O16  1  0.62919984  0.05858841  0.75000000  1
  O  O17  1  0.87079935  0.55858809  0.75000000  1
  O  O18  1  0.19242595  0.19495839  0.93160432  1
  O  O19  1  0.30757207  0.69495642  0.93160432  1
