# generated using pymatgen
data_PrPtO3
_symmetry_space_group_name_H-M   'P 1'
_cell_length_a   5.59653374
_cell_length_b   6.11412106
_cell_length_c   7.62863035
_cell_angle_alpha   90.00000000
_cell_angle_beta   90.00000000
_cell_angle_gamma   90.00000000
_symmetry_Int_Tables_number   1
_chemical_formula_structural   PrPtO3
_chemical_formula_sum   'Pr4 Pt4 O12'
_cell_volume   261.03559466
_cell_formula_units_Z   4
loop_
 _symmetry_equiv_pos_site_id
 _symmetry_equiv_pos_as_xyz
  1  'x, y, z'
loop_
 _atom_site_type_symbol
 _atom_site_label
 _atom_site_symmetry_multiplicity
 _atom_site_fract_x
 _atom_site_fract_y
 _atom_site_fract_z
 _atom_site_occupancy
  O  O0  1  0.68423960  0.30563510  0.05163837  1
  O  O1  1  0.81576208  0.80563501  0.05163837  1
  O  O2  1  0.12829906  0.45306430  0.25000032  1
  O  O3  1  0.37170150  0.95306422  0.25000032  1
  O  O4  1  0.68423960  0.30563510  0.44836227  1
  O  O5  1  0.81576208  0.80563501  0.44836227  1
  O  O6  1  0.18423904  0.19436481  0.55163769  1
  O  O7  1  0.31576152  0.69436473  0.55163769  1
  O  O8  1  0.62829962  0.04693561  0.74999964  1
  O  O9  1  0.87170027  0.54693552  0.74999964  1
  O  O10  1  0.18423904  0.19436481  0.94836159  1
  O  O11  1  0.31576152  0.69436473  0.94836159  1
  Pr  Pr12  1  0.97084200  0.08144425  0.25000032  1
  Pr  Pr13  1  0.52915789  0.58144416  0.25000032  1
  Pr  Pr14  1  0.47084323  0.41855566  0.74999964  1
  Pr  Pr15  1  0.02915733  0.91855558  0.74999964  1
  Pt  Pt16  1  0.50000056  0.00000000  0.00000000  1
  Pt  Pt17  1  0.00000000  0.49999991  0.00000000  1
  Pt  Pt18  1  0.50000056  0.00000000  0.50000063  1
  Pt  Pt19  1  0.00000000  0.49999991  0.50000063  1
