# generated using pymatgen
data_PrAgO3
_symmetry_space_group_name_H-M   'P 1'
_cell_length_a   5.59849027
_cell_length_b   6.00980941
_cell_length_c   8.00938571
_cell_angle_alpha   90.00000000
_cell_angle_beta   90.00000000
_cell_angle_gamma   90.00000000
_symmetry_Int_Tables_number   1
_chemical_formula_structural   PrAgO3
_chemical_formula_sum   'Pr4 Ag4 O12'
_cell_volume   269.48266625
_cell_formula_units_Z   4
loop_
 _symmetry_equiv_pos_site_id
 _symmetry_equiv_pos_as_xyz
  1  'x, y, z'
loop_
 _atom_site_type_symbol
 _atom_site_label
 _atom_site_symmetry_multiplicity
 _atom_site_fract_x
 _atom_site_fract_y
 _atom_site_fract_z
 _atom_site_occupancy
  Ag  Ag0  1  0.50000087  0.00000000  0.00000000  1
  Ag  Ag1  1  0.00000000  0.49999922  0.00000000  1
  Ag  Ag2  1  0.50000087  0.00000000  0.49999964  1
  Ag  Ag3  1  0.00000000  0.49999922  0.49999964  1
  O  O4  1  0.69631808  0.30842742  0.05858002  1
  O  O5  1  0.80368274  0.80842663  0.05858002  1
  O  O6  1  0.11831583  0.45804614  0.25000045  1
  O  O7  1  0.38168326  0.95804702  0.25000045  1
  O  O8  1  0.69631808  0.30842742  0.44141962  1
  O  O9  1  0.80368274  0.80842663  0.44141962  1
  O  O10  1  0.19631721  0.19157346  0.55857967  1
  O  O11  1  0.30368366  0.69157268  0.55857967  1
  O  O12  1  0.61831670  0.04195308  0.75000009  1
  O  O13  1  0.88168413  0.54195396  0.75000009  1
  O  O14  1  0.19631721  0.19157346  0.94142051  1
  O  O15  1  0.30368366  0.69157268  0.94142051  1
  Pr  Pr16  1  0.97699018  0.07499739  0.25000045  1
  Pr  Pr17  1  0.52301064  0.57499660  0.25000045  1
  Pr  Pr18  1  0.47698931  0.42500183  0.75000009  1
  Pr  Pr19  1  0.02300977  0.92500271  0.75000009  1
