# generated using pymatgen
data_MoPdO3
_symmetry_space_group_name_H-M   'P 1'
_cell_length_a   5.25805952
_cell_length_b   5.58126459
_cell_length_c   7.61679335
_cell_angle_alpha   90.00000000
_cell_angle_beta   90.00000000
_cell_angle_gamma   90.00000000
_symmetry_Int_Tables_number   1
_chemical_formula_structural   MoPdO3
_chemical_formula_sum   'Mo4 Pd4 O12'
_cell_volume   223.52715076
_cell_formula_units_Z   4
loop_
 _symmetry_equiv_pos_site_id
 _symmetry_equiv_pos_as_xyz
  1  'x, y, z'
loop_
 _atom_site_type_symbol
 _atom_site_label
 _atom_site_symmetry_multiplicity
 _atom_site_fract_x
 _atom_site_fract_y
 _atom_site_fract_z
 _atom_site_occupancy
  Mo  Mo0  1  0.50000005  0.00000000  0.00000000  1
  Mo  Mo1  1  0.00000000  0.49999959  0.00000000  1
  Mo  Mo2  1  0.50000005  0.00000000  0.50000044  1
  Mo  Mo3  1  0.00000000  0.49999959  0.50000044  1
  O  O4  1  0.67949973  0.31131654  0.03222353  1
  O  O5  1  0.82050231  0.81131613  0.03222353  1
  O  O6  1  0.06927461  0.47317950  0.25000022  1
  O  O7  1  0.43072734  0.97318088  0.25000022  1
  O  O8  1  0.67949973  0.31131654  0.46777690  1
  O  O9  1  0.82050231  0.81131613  0.46777690  1
  O  O10  1  0.17949968  0.18868305  0.53222397  1
  O  O11  1  0.32050227  0.68868443  0.53222397  1
  O  O12  1  0.56927465  0.02682009  0.74999934  1
  O  O13  1  0.93072549  0.52681968  0.74999934  1
  O  O14  1  0.17949968  0.18868305  0.96777603  1
  O  O15  1  0.32050227  0.68868443  0.96777603  1
  Pd  Pd16  1  0.50988772  0.49387015  0.25000022  1
  Pd  Pd17  1  0.99011241  0.99387056  0.25000022  1
  Pd  Pd18  1  0.00988768  0.00612944  0.74999934  1
  Pd  Pd19  1  0.49011237  0.50612902  0.74999934  1
