# generated using pymatgen
data_PaReO3
_symmetry_space_group_name_H-M   'P 1'
_cell_length_a   4.39775000
_cell_length_b   4.39775000
_cell_length_c   4.39775000
_cell_angle_alpha   90.00000000
_cell_angle_beta   90.00000000
_cell_angle_gamma   90.00000000
_symmetry_Int_Tables_number   1
_chemical_formula_structural   PaReO3
_chemical_formula_sum   'Pa1 Re1 O3'
_cell_volume   85.05338681
_cell_formula_units_Z   1
loop_
 _symmetry_equiv_pos_site_id
 _symmetry_equiv_pos_as_xyz
  1  'x, y, z'
loop_
 _atom_site_type_symbol
 _atom_site_label
 _atom_site_symmetry_multiplicity
 _atom_site_fract_x
 _atom_site_fract_y
 _atom_site_fract_z
 _atom_site_occupancy
  O  O0  1  0.49999886  0.49999886  0.00000000  1
  O  O1  1  0.49999886  0.00000000  0.49999886  1
  O  O2  1  0.00000000  0.49999886  0.49999886  1
  Pa  Pa3  1  0.49999886  0.49999886  0.49999886  1
  Re  Re4  1  0.00000000  0.00000000  0.00000000  1
