# generated using pymatgen
data_YBeO3
_symmetry_space_group_name_H-M   'P 1'
_cell_length_a   4.99624081
_cell_length_b   5.29254493
_cell_length_c   7.05937390
_cell_angle_alpha   90.00000000
_cell_angle_beta   90.00000000
_cell_angle_gamma   90.00000000
_symmetry_Int_Tables_number   1
_chemical_formula_structural   YBeO3
_chemical_formula_sum   'Y4 Be4 O12'
_cell_volume   186.66981674
_cell_formula_units_Z   4
loop_
 _symmetry_equiv_pos_site_id
 _symmetry_equiv_pos_as_xyz
  1  'x, y, z'
loop_
 _atom_site_type_symbol
 _atom_site_label
 _atom_site_symmetry_multiplicity
 _atom_site_fract_x
 _atom_site_fract_y
 _atom_site_fract_z
 _atom_site_occupancy
  Be  Be0  1  0.49999992  0.00000000  0.00000000  1
  Be  Be1  1  0.00000000  0.50000142  0.00000000  1
  Be  Be2  1  0.49999992  0.00000000  0.49999902  1
  Be  Be3  1  0.00000000  0.50000142  0.49999902  1
  O  O4  1  0.69406182  0.27510395  0.03313750  1
  O  O5  1  0.80593994  0.77510348  0.03313750  1
  O  O6  1  0.06094182  0.49441621  0.24999951  1
  O  O7  1  0.43905810  0.99441574  0.24999951  1
  O  O8  1  0.69406182  0.27510395  0.46686152  1
  O  O9  1  0.80593994  0.77510348  0.46686152  1
  O  O10  1  0.19406190  0.22489748  0.53313935  1
  O  O11  1  0.30594002  0.72489701  0.53313935  1
  O  O12  1  0.56094174  0.00558333  0.74999994  1
  O  O13  1  0.93905802  0.50558286  0.74999994  1
  O  O14  1  0.19406190  0.22489748  0.96686195  1
  O  O15  1  0.30594002  0.72489701  0.96686195  1
  Y  Y16  1  0.98198830  0.06026779  0.24999951  1
  Y  Y17  1  0.51801146  0.56026922  0.24999951  1
  Y  Y18  1  0.48199038  0.43973174  0.74999994  1
  Y  Y19  1  0.01800954  0.93973317  0.74999994  1
