# generated using pymatgen
data_RbScO3
_symmetry_space_group_name_H-M   'P 1'
_cell_length_a   5.96078821
_cell_length_b   5.96078821
_cell_length_c   5.96078830
_cell_angle_alpha   59.87917415
_cell_angle_beta   59.87917415
_cell_angle_gamma   59.87918087
_symmetry_Int_Tables_number   1
_chemical_formula_structural   RbScO3
_chemical_formula_sum   'Rb2 Sc2 O6'
_cell_volume   149.34952711
_cell_formula_units_Z   2
loop_
 _symmetry_equiv_pos_site_id
 _symmetry_equiv_pos_as_xyz
  1  'x, y, z'
loop_
 _atom_site_type_symbol
 _atom_site_label
 _atom_site_symmetry_multiplicity
 _atom_site_fract_x
 _atom_site_fract_y
 _atom_site_fract_z
 _atom_site_occupancy
  O  O0  1  0.25013735  0.75000126  0.24986072  1
  O  O1  1  0.75013846  0.74986282  0.24999983  1
  O  O2  1  0.75000031  0.24986077  0.25013824  1
  O  O3  1  0.24999993  0.75013947  0.74986171  1
  O  O4  1  0.24986178  0.25013742  0.75000012  1
  O  O5  1  0.74986289  0.24999898  0.75013923  1
  Rb  Rb6  1  0.25000057  0.25000057  0.25000050  1
  Rb  Rb7  1  0.75000035  0.75000035  0.75000014  1
  Sc  Sc8  1  0.00000000  0.00000000  0.00000000  1
  Sc  Sc9  1  0.49999978  0.49999978  0.49999964  1
