# generated using pymatgen
data_TlCrO3
_symmetry_space_group_name_H-M   'P 1'
_cell_length_a   5.40500000
_cell_length_b   7.64700000
_cell_length_c   5.30200000
_cell_angle_alpha   90.00000000
_cell_angle_beta   90.00000000
_cell_angle_gamma   90.00000000
_symmetry_Int_Tables_number   1
_chemical_formula_structural   TlCrO3
_chemical_formula_sum   'Tl4 Cr4 O12'
_cell_volume   219.14244957
_cell_formula_units_Z   4
loop_
 _symmetry_equiv_pos_site_id
 _symmetry_equiv_pos_as_xyz
  1  'x, y, z'
loop_
 _atom_site_type_symbol
 _atom_site_label
 _atom_site_symmetry_multiplicity
 _atom_site_fract_x
 _atom_site_fract_y
 _atom_site_fract_z
 _atom_site_occupancy
  Cr  Cr0  1  0.50000000  0.00000000  0.00000000  1
  Cr  Cr1  1  0.50000000  0.50000000  0.00000000  1
  Cr  Cr2  1  0.00000000  0.00000000  0.50000000  1
  Cr  Cr3  1  0.00000000  0.50000000  0.50000000  1
  O  O4  1  0.48463353  0.25000000  0.00017162  1
  O  O5  1  0.19941285  0.50753541  0.15234685  1
  O  O6  1  0.19941285  0.99246459  0.15234685  1
  O  O7  1  0.69941285  0.50753541  0.34765315  1
  O  O8  1  0.69941285  0.99246459  0.34765315  1
  O  O9  1  0.98463353  0.25000000  0.49982838  1
  O  O10  1  0.01536647  0.75000000  0.50017162  1
  O  O11  1  0.30058715  0.00753541  0.65234685  1
  O  O12  1  0.30058715  0.49246459  0.65234685  1
  O  O13  1  0.80058715  0.00753541  0.84765315  1
  O  O14  1  0.80058715  0.49246459  0.84765315  1
  O  O15  1  0.51536647  0.75000000  0.99982838  1
  Tl  Tl16  1  0.93578820  0.75000000  0.00018043  1
  Tl  Tl17  1  0.43578820  0.75000000  0.49981957  1
  Tl  Tl18  1  0.56421180  0.25000000  0.50018043  1
  Tl  Tl19  1  0.06421180  0.25000000  0.99981957  1
