# generated using pymatgen
data_VPbO3
_symmetry_space_group_name_H-M   'P 1'
_cell_length_a   5.45972017
_cell_length_b   5.48201789
_cell_length_c   7.94945476
_cell_angle_alpha   90.00000000
_cell_angle_beta   90.00000000
_cell_angle_gamma   90.00000000
_symmetry_Int_Tables_number   1
_chemical_formula_structural   VPbO3
_chemical_formula_sum   'V4 Pb4 O12'
_cell_volume   237.92943586
_cell_formula_units_Z   4
loop_
 _symmetry_equiv_pos_site_id
 _symmetry_equiv_pos_as_xyz
  1  'x, y, z'
loop_
 _atom_site_type_symbol
 _atom_site_label
 _atom_site_symmetry_multiplicity
 _atom_site_fract_x
 _atom_site_fract_y
 _atom_site_fract_z
 _atom_site_occupancy
  O  O0  1  0.72782851  0.25405608  0.01264363  1
  O  O1  1  0.77217144  0.75405628  0.01264363  1
  O  O2  1  0.03178918  0.50113664  0.24999954  1
  O  O3  1  0.46821081  0.00113644  0.24999954  1
  O  O4  1  0.72782851  0.25405608  0.48735544  1
  O  O5  1  0.77217144  0.75405628  0.48735544  1
  O  O6  1  0.22782853  0.24594411  0.51264396  1
  O  O7  1  0.27217146  0.74594248  0.51264396  1
  O  O8  1  0.53178916  0.99886356  0.74999987  1
  O  O9  1  0.96821079  0.49886193  0.74999987  1
  O  O10  1  0.22782853  0.24594411  0.98735577  1
  O  O11  1  0.27217146  0.74594248  0.98735577  1
  Pb  Pb12  1  0.00494897  0.01018238  0.24999954  1
  Pb  Pb13  1  0.49505101  0.51018075  0.24999954  1
  Pb  Pb14  1  0.50494896  0.48981781  0.74999987  1
  Pb  Pb15  1  0.99505103  0.98981800  0.74999987  1
  V  V16  1  0.49999998  0.00000000  0.00000000  1
  V  V17  1  0.00000000  0.50000019  0.00000000  1
  V  V18  1  0.49999998  0.00000000  0.50000033  1
  V  V19  1  0.00000000  0.50000019  0.50000033  1
