# generated using pymatgen
data_NpMnO3
_symmetry_space_group_name_H-M   'P 1'
_cell_length_a   5.43178257
_cell_length_b   5.49309838
_cell_length_c   7.69536697
_cell_angle_alpha   90.00000000
_cell_angle_beta   90.00000000
_cell_angle_gamma   90.00000000
_symmetry_Int_Tables_number   1
_chemical_formula_structural   NpMnO3
_chemical_formula_sum   'Np4 Mn4 O12'
_cell_volume   229.60909637
_cell_formula_units_Z   4
loop_
 _symmetry_equiv_pos_site_id
 _symmetry_equiv_pos_as_xyz
  1  'x, y, z'
loop_
 _atom_site_type_symbol
 _atom_site_label
 _atom_site_symmetry_multiplicity
 _atom_site_fract_x
 _atom_site_fract_y
 _atom_site_fract_z
 _atom_site_occupancy
  Mn  Mn0  1  0.49999976  0.00000000  0.00000000  1
  Mn  Mn1  1  0.00000000  0.50000015  0.00000000  1
  Mn  Mn2  1  0.49999976  0.00000000  0.50000085  1
  Mn  Mn3  1  0.00000000  0.50000015  0.50000085  1
  Np  Np4  1  0.99134675  0.03912910  0.24999977  1
  Np  Np5  1  0.50865254  0.53912925  0.24999977  1
  Np  Np6  1  0.49134883  0.46087287  0.75000062  1
  Np  Np7  1  0.00865278  0.96087119  0.75000062  1
  O  O8  1  0.70799778  0.29238872  0.03428946  1
  O  O9  1  0.79200151  0.79238887  0.03428946  1
  O  O10  1  0.06864966  0.49077038  0.24999977  1
  O  O11  1  0.43135011  0.99077053  0.24999977  1
  O  O12  1  0.70799778  0.29238872  0.46571008  1
  O  O13  1  0.79200151  0.79238887  0.46571008  1
  O  O14  1  0.20799802  0.20761143  0.53429031  1
  O  O15  1  0.29200175  0.70761158  0.53429031  1
  O  O16  1  0.56864942  0.00922976  0.75000062  1
  O  O17  1  0.93134987  0.50922991  0.75000062  1
  O  O18  1  0.20799802  0.20761143  0.96571093  1
  O  O19  1  0.29200175  0.70761158  0.96571093  1
