# generated using pymatgen
data_TlBiO3
_symmetry_space_group_name_H-M   'P 1'
_cell_length_a   5.96321123
_cell_length_b   6.03573895
_cell_length_c   8.66334390
_cell_angle_alpha   90.00000000
_cell_angle_beta   90.00000000
_cell_angle_gamma   90.00000000
_symmetry_Int_Tables_number   1
_chemical_formula_structural   TlBiO3
_chemical_formula_sum   'Tl4 Bi4 O12'
_cell_volume   311.81442034
_cell_formula_units_Z   4
loop_
 _symmetry_equiv_pos_site_id
 _symmetry_equiv_pos_as_xyz
  1  'x, y, z'
loop_
 _atom_site_type_symbol
 _atom_site_label
 _atom_site_symmetry_multiplicity
 _atom_site_fract_x
 _atom_site_fract_y
 _atom_site_fract_z
 _atom_site_occupancy
  Bi  Bi0  1  0.50000074  0.00000000  0.00000000  1
  Bi  Bi1  1  0.00000000  0.50000009  0.00000000  1
  Bi  Bi2  1  0.50000074  0.00000000  0.49999977  1
  Bi  Bi3  1  0.00000000  0.50000009  0.49999977  1
  O  O4  1  0.66585936  0.33133474  0.07744238  1
  O  O5  1  0.83414117  0.83133483  0.07744238  1
  O  O6  1  0.14074631  0.37567562  0.25000046  1
  O  O7  1  0.35925274  0.87567571  0.25000046  1
  O  O8  1  0.66585936  0.33133474  0.42255739  1
  O  O9  1  0.83414117  0.83133483  0.42255739  1
  O  O10  1  0.16585862  0.16866535  0.57744331  1
  O  O11  1  0.33414044  0.66866543  0.57744331  1
  O  O12  1  0.64074705  0.12432446  0.75000024  1
  O  O13  1  0.85925348  0.62432455  0.75000024  1
  O  O14  1  0.16585862  0.16866535  0.92255717  1
  O  O15  1  0.33414044  0.66866543  0.92255717  1
  Tl  Tl16  1  0.99543870  0.03976481  0.25000046  1
  Tl  Tl17  1  0.50456036  0.53976489  0.25000046  1
  Tl  Tl18  1  0.49543943  0.46023528  0.75000024  1
  Tl  Tl19  1  0.00456130  0.96023537  0.75000024  1
