# generated using pymatgen
data_YFeO3
_symmetry_space_group_name_H-M   'P 1'
_cell_length_a   5.33997700
_cell_length_b   5.66418100
_cell_length_c   7.72581600
_cell_angle_alpha   90.00000000
_cell_angle_beta   90.00000000
_cell_angle_gamma   90.00000000
_symmetry_Int_Tables_number   1
_chemical_formula_structural   YFeO3
_chemical_formula_sum   'Y4 Fe4 O12'
_cell_volume   233.67963736
_cell_formula_units_Z   4
loop_
 _symmetry_equiv_pos_site_id
 _symmetry_equiv_pos_as_xyz
  1  'x, y, z'
loop_
 _atom_site_type_symbol
 _atom_site_label
 _atom_site_symmetry_multiplicity
 _atom_site_fract_x
 _atom_site_fract_y
 _atom_site_fract_z
 _atom_site_occupancy
  Y  Y0  1  0.51877000  0.43113800  0.25000000  1
  Y  Y1  1  0.01877000  0.06886200  0.75000000  1
  Y  Y2  1  0.98123000  0.93113800  0.25000000  1
  Y  Y3  1  0.48123000  0.56886200  0.75000000  1
  Fe  Fe4  1  0.50000000  0.00000000  0.00000000  1
  Fe  Fe5  1  0.00000000  0.50000000  0.00000000  1
  Fe  Fe6  1  0.00000000  0.50000000  0.50000000  1
  Fe  Fe7  1  0.50000000  0.00000000  0.50000000  1
  O  O8  1  0.19112400  0.80627300  0.94084600  1
  O  O9  1  0.69112400  0.69372700  0.05915400  1
  O  O10  1  0.30887600  0.30627300  0.55915400  1
  O  O11  1  0.80887600  0.19372700  0.44084600  1
  O  O12  1  0.80887600  0.19372700  0.05915400  1
  O  O13  1  0.30887600  0.30627300  0.94084600  1
  O  O14  1  0.69112400  0.69372700  0.44084600  1
  O  O15  1  0.19112400  0.80627300  0.55915400  1
  O  O16  1  0.61486400  0.95750400  0.75000000  1
  O  O17  1  0.11486400  0.54249600  0.25000000  1
  O  O18  1  0.88513600  0.45750400  0.75000000  1
  O  O19  1  0.38513600  0.04249600  0.25000000  1
