# generated using pymatgen
data_TlBiO3
_symmetry_space_group_name_H-M   'P 1'
_cell_length_a   5.77657396
_cell_length_b   6.24698696
_cell_length_c   8.24120055
_cell_angle_alpha   90.00000000
_cell_angle_beta   90.00000000
_cell_angle_gamma   90.00000000
_symmetry_Int_Tables_number   1
_chemical_formula_structural   TlBiO3
_chemical_formula_sum   'Tl4 Bi4 O12'
_cell_volume   297.39346470
_cell_formula_units_Z   4
loop_
 _symmetry_equiv_pos_site_id
 _symmetry_equiv_pos_as_xyz
  1  'x, y, z'
loop_
 _atom_site_type_symbol
 _atom_site_label
 _atom_site_symmetry_multiplicity
 _atom_site_fract_x
 _atom_site_fract_y
 _atom_site_fract_z
 _atom_site_occupancy
  Bi  Bi0  1  0.98795238  0.04328167  0.24999998  1
  Bi  Bi1  1  0.51204572  0.54328111  0.24999998  1
  Bi  Bi2  1  0.48795359  0.45671778  0.74999995  1
  Bi  Bi3  1  0.01204693  0.95671722  0.74999995  1
  O  O4  1  0.65811674  0.32141575  0.06261952  1
  O  O5  1  0.84188137  0.82141519  0.06261952  1
  O  O6  1  0.15475090  0.43278144  0.24999998  1
  O  O7  1  0.34524789  0.93278408  0.24999998  1
  O  O8  1  0.65811674  0.32141575  0.43738045  1
  O  O9  1  0.84188137  0.82141519  0.43738045  1
  O  O10  1  0.15811621  0.17858529  0.56261948  1
  O  O11  1  0.34188431  0.67858474  0.56261948  1
  O  O12  1  0.65475142  0.06721800  0.74999995  1
  O  O13  1  0.84524842  0.56721745  0.74999995  1
  O  O14  1  0.15811621  0.17858529  0.93738042  1
  O  O15  1  0.34188431  0.67858474  0.93738042  1
  Tl  Tl16  1  0.50000052  0.00000000  0.00000000  1
  Tl  Tl17  1  0.00000000  0.49999944  0.00000000  1
  Tl  Tl18  1  0.50000052  0.00000000  0.49999997  1
  Tl  Tl19  1  0.00000000  0.49999944  0.49999997  1
