# generated using pymatgen
data_CeDyO3
_symmetry_space_group_name_H-M   'P 1'
_cell_length_a   5.85620114
_cell_length_b   6.09549731
_cell_length_c   8.48763186
_cell_angle_alpha   90.00000000
_cell_angle_beta   90.00000000
_cell_angle_gamma   90.00000000
_symmetry_Int_Tables_number   1
_chemical_formula_structural   CeDyO3
_chemical_formula_sum   'Ce4 Dy4 O12'
_cell_volume   302.97839656
_cell_formula_units_Z   4
loop_
 _symmetry_equiv_pos_site_id
 _symmetry_equiv_pos_as_xyz
  1  'x, y, z'
loop_
 _atom_site_type_symbol
 _atom_site_label
 _atom_site_symmetry_multiplicity
 _atom_site_fract_x
 _atom_site_fract_y
 _atom_site_fract_z
 _atom_site_occupancy
  Ce  Ce0  1  0.98331151  0.05268807  0.25000024  1
  Ce  Ce1  1  0.51668649  0.55268829  0.25000024  1
  Ce  Ce2  1  0.48331332  0.44731051  0.75000072  1
  Ce  Ce3  1  0.01668829  0.94731237  0.75000072  1
  Dy  Dy4  1  0.49999990  0.00000000  0.00000000  1
  Dy  Dy5  1  0.00000000  0.50000022  0.00000000  1
  Dy  Dy6  1  0.49999990  0.00000000  0.49999930  1
  Dy  Dy7  1  0.00000000  0.50000022  0.49999930  1
  O  O8  1  0.69111014  0.30632447  0.06930084  1
  O  O9  1  0.80888957  0.80632469  0.06930084  1
  O  O10  1  0.13095520  0.43925702  0.25000024  1
  O  O11  1  0.36904641  0.93925724  0.25000024  1
  O  O12  1  0.69111014  0.30632447  0.43070082  1
  O  O13  1  0.80888957  0.80632469  0.43070082  1
  O  O14  1  0.19111024  0.19367739  0.56930014  1
  O  O15  1  0.30888966  0.69367761  0.56930014  1
  O  O16  1  0.63095340  0.06074156  0.75000072  1
  O  O17  1  0.86904460  0.56074342  0.75000072  1
  O  O18  1  0.19111024  0.19367739  0.93070012  1
  O  O19  1  0.30888966  0.69367761  0.93070012  1
