# generated using pymatgen
data_YbAsO3
_symmetry_space_group_name_H-M   'P 1'
_cell_length_a   5.32245601
_cell_length_b   5.51807885
_cell_length_c   7.62482456
_cell_angle_alpha   90.00000000
_cell_angle_beta   90.00000000
_cell_angle_gamma   90.00000000
_symmetry_Int_Tables_number   1
_chemical_formula_structural   YbAsO3
_chemical_formula_sum   'Yb4 As4 O12'
_cell_volume   223.93905323
_cell_formula_units_Z   4
loop_
 _symmetry_equiv_pos_site_id
 _symmetry_equiv_pos_as_xyz
  1  'x, y, z'
loop_
 _atom_site_type_symbol
 _atom_site_label
 _atom_site_symmetry_multiplicity
 _atom_site_fract_x
 _atom_site_fract_y
 _atom_site_fract_z
 _atom_site_occupancy
  As  As0  1  0.50000037  0.00000000  0.00000000  1
  As  As1  1  0.00000000  0.50000010  0.00000000  1
  As  As2  1  0.50000037  0.00000000  0.49999970  1
  As  As3  1  0.00000000  0.50000010  0.49999970  1
  O  O4  1  0.70315283  0.29516613  0.04733617  1
  O  O5  1  0.79684830  0.79516443  0.04733617  1
  O  O6  1  0.09058224  0.47453472  0.24999919  1
  O  O7  1  0.40941813  0.97453482  0.24999919  1
  O  O8  1  0.70315283  0.29516613  0.45266484  1
  O  O9  1  0.79684830  0.79516443  0.45266484  1
  O  O10  1  0.20315245  0.20483397  0.54733587  1
  O  O11  1  0.29684604  0.70483589  0.54733587  1
  O  O12  1  0.59058262  0.02546357  0.74999890  1
  O  O13  1  0.90941663  0.52546368  0.74999890  1
  O  O14  1  0.20315245  0.20483397  0.95266454  1
  O  O15  1  0.29684604  0.70483589  0.95266454  1
  Yb  Yb16  1  0.98413965  0.05768131  0.24999919  1
  Yb  Yb17  1  0.51586147  0.55768141  0.24999919  1
  Yb  Yb18  1  0.48413928  0.44231880  0.74999890  1
  Yb  Yb19  1  0.01585922  0.94231890  0.74999890  1
