# generated using pymatgen
data_NbAuO3
_symmetry_space_group_name_H-M   'P 1'
_cell_length_a   5.50118031
_cell_length_b   5.65483436
_cell_length_c   7.93664807
_cell_angle_alpha   90.00000000
_cell_angle_beta   90.00000000
_cell_angle_gamma   90.00000000
_symmetry_Int_Tables_number   1
_chemical_formula_structural   NbAuO3
_chemical_formula_sum   'Nb4 Au4 O12'
_cell_volume   246.89533900
_cell_formula_units_Z   4
loop_
 _symmetry_equiv_pos_site_id
 _symmetry_equiv_pos_as_xyz
  1  'x, y, z'
loop_
 _atom_site_type_symbol
 _atom_site_label
 _atom_site_symmetry_multiplicity
 _atom_site_fract_x
 _atom_site_fract_y
 _atom_site_fract_z
 _atom_site_occupancy
  Au  Au0  1  0.49589903  0.49012399  0.24999975  1
  Au  Au1  1  0.00410094  0.99012173  0.24999975  1
  Au  Au2  1  0.99590088  0.00987651  0.75000050  1
  Au  Au3  1  0.50410091  0.50987700  0.75000050  1
  Nb  Nb4  1  0.49999997  0.00000000  0.00000000  1
  Nb  Nb5  1  0.00000000  0.49999873  0.00000000  1
  Nb  Nb6  1  0.49999997  0.00000000  0.49999949  1
  Nb  Nb7  1  0.00000000  0.49999873  0.49999949  1
  O  O8  1  0.70183120  0.29616783  0.03069180  1
  O  O9  1  0.79816689  0.79616832  0.03069180  1
  O  O10  1  0.06144500  0.48257647  0.24999975  1
  O  O11  1  0.43855316  0.98257520  0.24999975  1
  O  O12  1  0.70183120  0.29616783  0.46930895  1
  O  O13  1  0.79816689  0.79616832  0.46930895  1
  O  O14  1  0.20183123  0.20383267  0.53069129  1
  O  O15  1  0.29816692  0.70383140  0.53069129  1
  O  O16  1  0.56144679  0.01742403  0.75000050  1
  O  O17  1  0.93855313  0.51742453  0.75000050  1
  O  O18  1  0.20183123  0.20383267  0.96930844  1
  O  O19  1  0.29816692  0.70383140  0.96930844  1
