# generated using pymatgen
data_PuScO3
_symmetry_space_group_name_H-M   'P 1'
_cell_length_a   5.59670051
_cell_length_b   5.80098874
_cell_length_c   7.96038861
_cell_angle_alpha   90.00000000
_cell_angle_beta   90.00000000
_cell_angle_gamma   90.00000000
_symmetry_Int_Tables_number   1
_chemical_formula_structural   PuScO3
_chemical_formula_sum   'Pu4 Sc4 O12'
_cell_volume   258.44513371
_cell_formula_units_Z   4
loop_
 _symmetry_equiv_pos_site_id
 _symmetry_equiv_pos_as_xyz
  1  'x, y, z'
loop_
 _atom_site_type_symbol
 _atom_site_label
 _atom_site_symmetry_multiplicity
 _atom_site_fract_x
 _atom_site_fract_y
 _atom_site_fract_z
 _atom_site_occupancy
  O  O0  1  0.69403213  0.30416539  0.05307655  1
  O  O1  1  0.80596594  0.80416636  0.05307655  1
  O  O2  1  0.10531205  0.46361235  0.24999910  1
  O  O3  1  0.39468612  0.96361159  0.24999910  1
  O  O4  1  0.69403213  0.30416539  0.44692165  1
  O  O5  1  0.80596594  0.80416636  0.44692165  1
  O  O6  1  0.19403218  0.19583213  0.55307727  1
  O  O7  1  0.30596599  0.69583310  0.55307727  1
  O  O8  1  0.60531379  0.03638862  0.74999982  1
  O  O9  1  0.89468607  0.53638960  0.74999982  1
  O  O10  1  0.19403218  0.19583213  0.94692236  1
  O  O11  1  0.30596599  0.69583310  0.94692236  1
  Pu  Pu12  1  0.98849313  0.05397873  0.24999910  1
  Pu  Pu13  1  0.51150673  0.55397970  0.24999910  1
  Pu  Pu14  1  0.48849496  0.44602052  0.74999982  1
  Pu  Pu15  1  0.01150678  0.94602149  0.74999982  1
  Sc  Sc16  1  0.49999995  0.00000000  0.00000000  1
  Sc  Sc17  1  0.00000000  0.50000097  0.00000000  1
  Sc  Sc18  1  0.49999995  0.00000000  0.50000072  1
  Sc  Sc19  1  0.00000000  0.50000097  0.50000072  1
