# generated using pymatgen
data_TlInO3
_symmetry_space_group_name_H-M   'P 1'
_cell_length_a   5.60366934
_cell_length_b   5.72191613
_cell_length_c   8.23222287
_cell_angle_alpha   90.00000000
_cell_angle_beta   90.00000000
_cell_angle_gamma   90.00000000
_symmetry_Int_Tables_number   1
_chemical_formula_structural   TlInO3
_chemical_formula_sum   'Tl4 In4 O12'
_cell_volume   263.95573832
_cell_formula_units_Z   4
loop_
 _symmetry_equiv_pos_site_id
 _symmetry_equiv_pos_as_xyz
  1  'x, y, z'
loop_
 _atom_site_type_symbol
 _atom_site_label
 _atom_site_symmetry_multiplicity
 _atom_site_fract_x
 _atom_site_fract_y
 _atom_site_fract_z
 _atom_site_occupancy
  In  In0  1  0.49999917  0.00000000  0.00000000  1
  In  In1  1  0.00000000  0.50000034  0.00000000  1
  In  In2  1  0.49999917  0.00000000  0.49999983  1
  In  In3  1  0.00000000  0.50000034  0.49999983  1
  O  O4  1  0.68435159  0.31295286  0.07207166  1
  O  O5  1  0.81564770  0.81295319  0.07207166  1
  O  O6  1  0.13025751  0.41644616  0.24999931  1
  O  O7  1  0.36974166  0.91644475  0.24999931  1
  O  O8  1  0.68435159  0.31295286  0.42792816  1
  O  O9  1  0.81564770  0.81295319  0.42792816  1
  O  O10  1  0.18435063  0.18704923  0.57207270  1
  O  O11  1  0.31564853  0.68704782  0.57207270  1
  O  O12  1  0.63025846  0.08355418  0.74999913  1
  O  O13  1  0.86974261  0.58355452  0.74999913  1
  O  O14  1  0.18435063  0.18704923  0.92792799  1
  O  O15  1  0.31564853  0.68704782  0.92792799  1
  Tl  Tl16  1  0.98321112  0.05186899  0.24999931  1
  Tl  Tl17  1  0.51678817  0.55186933  0.24999931  1
  Tl  Tl18  1  0.48321195  0.44813135  0.74999913  1
  Tl  Tl19  1  0.01678721  0.94812994  0.74999913  1
