# generated using pymatgen
data_PuSnO3
_symmetry_space_group_name_H-M   'P 1'
_cell_length_a   5.84253766
_cell_length_b   6.20181357
_cell_length_c   8.50968764
_cell_angle_alpha   90.00000000
_cell_angle_beta   90.00000000
_cell_angle_gamma   90.00000000
_symmetry_Int_Tables_number   1
_chemical_formula_structural   PuSnO3
_chemical_formula_sum   'Pu4 Sn4 O12'
_cell_volume   308.34282475
_cell_formula_units_Z   4
loop_
 _symmetry_equiv_pos_site_id
 _symmetry_equiv_pos_as_xyz
  1  'x, y, z'
loop_
 _atom_site_type_symbol
 _atom_site_label
 _atom_site_symmetry_multiplicity
 _atom_site_fract_x
 _atom_site_fract_y
 _atom_site_fract_z
 _atom_site_occupancy
  O  O0  1  0.66828153  0.31360182  0.05651324  1
  O  O1  1  0.83171907  0.81360072  0.05651324  1
  O  O2  1  0.13478732  0.47617845  0.24999978  1
  O  O3  1  0.36521459  0.97617897  0.24999978  1
  O  O4  1  0.66828153  0.31360182  0.44348749  1
  O  O5  1  0.83171907  0.81360072  0.44348749  1
  O  O6  1  0.16828133  0.18640031  0.55651161  1
  O  O7  1  0.33172058  0.68639761  0.55651161  1
  O  O8  1  0.63478752  0.02382045  0.75000050  1
  O  O9  1  0.86521308  0.52382258  0.75000050  1
  O  O10  1  0.16828133  0.18640031  0.94348822  1
  O  O11  1  0.33172058  0.68639761  0.94348822  1
  Pu  Pu12  1  0.49999849  0.00000000  0.00000000  1
  Pu  Pu13  1  0.00000000  0.50000052  0.00000000  1
  Pu  Pu14  1  0.49999849  0.00000000  0.50000073  1
  Pu  Pu15  1  0.00000000  0.50000052  0.50000073  1
  Sn  Sn16  1  0.98840783  0.02860776  0.24999978  1
  Sn  Sn17  1  0.51159277  0.52860828  0.24999978  1
  Sn  Sn18  1  0.48840935  0.47139114  0.75000050  1
  Sn  Sn19  1  0.01159257  0.97139005  0.75000050  1
