# generated using pymatgen
data_SmZnO3
_symmetry_space_group_name_H-M   'P 1'
_cell_length_a   5.32730847
_cell_length_b   5.78413958
_cell_length_c   7.59470717
_cell_angle_alpha   90.00000000
_cell_angle_beta   90.00000000
_cell_angle_gamma   90.00000000
_symmetry_Int_Tables_number   1
_chemical_formula_structural   SmZnO3
_chemical_formula_sum   'Sm4 Zn4 O12'
_cell_volume   234.02251521
_cell_formula_units_Z   4
loop_
 _symmetry_equiv_pos_site_id
 _symmetry_equiv_pos_as_xyz
  1  'x, y, z'
loop_
 _atom_site_type_symbol
 _atom_site_label
 _atom_site_symmetry_multiplicity
 _atom_site_fract_x
 _atom_site_fract_y
 _atom_site_fract_z
 _atom_site_occupancy
  O  O0  1  0.70015656  0.30974183  0.04962008  1
  O  O1  1  0.79984480  0.80974187  0.04962008  1
  O  O2  1  0.09938790  0.47399790  0.25000042  1
  O  O3  1  0.40061318  0.97399793  0.25000042  1
  O  O4  1  0.70015656  0.30974183  0.45037945  1
  O  O5  1  0.79984480  0.80974187  0.45037945  1
  O  O6  1  0.20015736  0.19025820  0.54961961  1
  O  O7  1  0.29984372  0.69025651  0.54961961  1
  O  O8  1  0.59938898  0.02600214  0.74999995  1
  O  O9  1  0.90061239  0.52600218  0.74999995  1
  O  O10  1  0.20015736  0.19025820  0.95037897  1
  O  O11  1  0.29984372  0.69025651  0.95037897  1
  Sm  Sm12  1  0.97933319  0.07761223  0.25000042  1
  Sm  Sm13  1  0.52066630  0.57761227  0.25000042  1
  Sm  Sm14  1  0.47933398  0.42238780  0.74999995  1
  Sm  Sm15  1  0.02066710  0.92238784  0.74999995  1
  Zn  Zn16  1  0.50000108  0.00000000  0.00000000  1
  Zn  Zn17  1  0.00000000  0.50000004  0.00000000  1
  Zn  Zn18  1  0.50000108  0.00000000  0.49999953  1
  Zn  Zn19  1  0.00000000  0.50000004  0.49999953  1
