# generated using pymatgen
data_AgAsO3
_symmetry_space_group_name_H-M   'P 1'
_cell_length_a   5.32603247
_cell_length_b   5.36221055
_cell_length_c   7.52659787
_cell_angle_alpha   90.00000000
_cell_angle_beta   90.00000000
_cell_angle_gamma   90.00000000
_symmetry_Int_Tables_number   1
_chemical_formula_structural   AgAsO3
_chemical_formula_sum   'Ag4 As4 O12'
_cell_volume   214.95442308
_cell_formula_units_Z   4
loop_
 _symmetry_equiv_pos_site_id
 _symmetry_equiv_pos_as_xyz
  1  'x, y, z'
loop_
 _atom_site_type_symbol
 _atom_site_label
 _atom_site_symmetry_multiplicity
 _atom_site_fract_x
 _atom_site_fract_y
 _atom_site_fract_z
 _atom_site_occupancy
  Ag  Ag0  1  0.99845805  0.01507960  0.25000007  1
  Ag  Ag1  1  0.50154219  0.51508048  0.25000007  1
  Ag  Ag2  1  0.49845734  0.48491941  0.75000021  1
  Ag  Ag3  1  0.00154149  0.98492030  0.75000021  1
  As  As4  1  0.50000071  0.00000000  0.00000000  1
  As  As5  1  0.00000000  0.50000088  0.00000000  1
  As  As6  1  0.50000071  0.00000000  0.50000014  1
  As  As7  1  0.00000000  0.50000088  0.50000014  1
  O  O8  1  0.70938171  0.28619727  0.04190207  1
  O  O9  1  0.79061854  0.78619628  0.04190207  1
  O  O10  1  0.08133071  0.48474411  0.25000007  1
  O  O11  1  0.41867000  0.98474499  0.25000007  1
  O  O12  1  0.70938171  0.28619727  0.45809808  1
  O  O13  1  0.79061854  0.78619628  0.45809808  1
  O  O14  1  0.20938100  0.21380362  0.54190221  1
  O  O15  1  0.29061783  0.71380263  0.54190221  1
  O  O16  1  0.58132954  0.01525490  0.75000021  1
  O  O17  1  0.91867070  0.51525578  0.75000021  1
  O  O18  1  0.20938100  0.21380362  0.95809822  1
  O  O19  1  0.29061783  0.71380263  0.95809822  1
