# generated using pymatgen
data_AgPdO3
_symmetry_space_group_name_H-M   'P 1'
_cell_length_a   5.29991442
_cell_length_b   5.52615398
_cell_length_c   7.71895535
_cell_angle_alpha   90.00000000
_cell_angle_beta   90.00000000
_cell_angle_gamma   90.00000000
_symmetry_Int_Tables_number   1
_chemical_formula_structural   AgPdO3
_chemical_formula_sum   'Ag4 Pd4 O12'
_cell_volume   226.07386923
_cell_formula_units_Z   4
loop_
 _symmetry_equiv_pos_site_id
 _symmetry_equiv_pos_as_xyz
  1  'x, y, z'
loop_
 _atom_site_type_symbol
 _atom_site_label
 _atom_site_symmetry_multiplicity
 _atom_site_fract_x
 _atom_site_fract_y
 _atom_site_fract_z
 _atom_site_occupancy
  Ag  Ag0  1  0.98576875  0.07467762  0.24999886  1
  Ag  Ag1  1  0.51422906  0.57467816  0.24999886  1
  Ag  Ag2  1  0.48577011  0.42532112  0.74999916  1
  Ag  Ag3  1  0.01423042  0.92532167  0.74999916  1
  O  O4  1  0.69698484  0.29594543  0.07524723  1
  O  O5  1  0.80301485  0.79594597  0.07524723  1
  O  O6  1  0.13740788  0.43757196  0.24999886  1
  O  O7  1  0.36259076  0.93757250  0.24999886  1
  O  O8  1  0.69698484  0.29594543  0.42475178  1
  O  O9  1  0.80301485  0.79594597  0.42475178  1
  O  O10  1  0.19698620  0.20405331  0.57524623  1
  O  O11  1  0.30301621  0.70405566  0.57524623  1
  O  O12  1  0.63741029  0.06242678  0.74999916  1
  O  O13  1  0.86258940  0.56242733  0.74999916  1
  O  O14  1  0.19698620  0.20405331  0.92475208  1
  O  O15  1  0.30301621  0.70405566  0.92475208  1
  Pd  Pd16  1  0.49999864  0.00000000  0.00000000  1
  Pd  Pd17  1  0.00000000  0.50000054  0.00000000  1
  Pd  Pd18  1  0.49999864  0.00000000  0.50000030  1
  Pd  Pd19  1  0.00000000  0.50000054  0.50000030  1
