# generated using pymatgen
data_PuAgO3
_symmetry_space_group_name_H-M   'P 1'
_cell_length_a   5.67003543
_cell_length_b   5.98952659
_cell_length_c   8.34267802
_cell_angle_alpha   90.00000000
_cell_angle_beta   90.00000000
_cell_angle_gamma   90.00000000
_symmetry_Int_Tables_number   1
_chemical_formula_structural   PuAgO3
_chemical_formula_sum   'Pu4 Ag4 O12'
_cell_volume   283.32425359
_cell_formula_units_Z   4
loop_
 _symmetry_equiv_pos_site_id
 _symmetry_equiv_pos_as_xyz
  1  'x, y, z'
loop_
 _atom_site_type_symbol
 _atom_site_label
 _atom_site_symmetry_multiplicity
 _atom_site_fract_x
 _atom_site_fract_y
 _atom_site_fract_z
 _atom_site_occupancy
  Ag  Ag0  1  0.98998676  0.04653623  0.25000006  1
  Ag  Ag1  1  0.51001092  0.54653735  0.25000006  1
  Ag  Ag2  1  0.48998812  0.45346322  0.75000138  1
  Ag  Ag3  1  0.01001228  0.95346267  0.75000138  1
  O  O4  1  0.70578042  0.32002362  0.05744558  1
  O  O5  1  0.79422079  0.82002307  0.05744558  1
  O  O6  1  0.11160777  0.47090867  0.25000006  1
  O  O7  1  0.38839440  0.97090979  0.25000006  1
  O  O8  1  0.70578042  0.32002362  0.44255334  1
  O  O9  1  0.79422079  0.82002307  0.44255334  1
  O  O10  1  0.20578002  0.17997750  0.55744690  1
  O  O11  1  0.29422038  0.67997695  0.55744690  1
  O  O12  1  0.61160641  0.02908911  0.75000138  1
  O  O13  1  0.88839304  0.52909023  0.75000138  1
  O  O14  1  0.20578002  0.17997750  0.94255346  1
  O  O15  1  0.29422038  0.67997695  0.94255346  1
  Pu  Pu16  1  0.50000040  0.00000000  0.00000000  1
  Pu  Pu17  1  0.00000000  0.50000112  0.00000000  1
  Pu  Pu18  1  0.50000040  0.00000000  0.49999892  1
  Pu  Pu19  1  0.00000000  0.50000112  0.49999892  1
