# generated using pymatgen
data_LaHfO3
_symmetry_space_group_name_H-M   'P 1'
_cell_length_a   5.70859604
_cell_length_b   5.89820147
_cell_length_c   8.12312708
_cell_angle_alpha   90.00000000
_cell_angle_beta   90.00000000
_cell_angle_gamma   90.00000000
_symmetry_Int_Tables_number   1
_chemical_formula_structural   LaHfO3
_chemical_formula_sum   'La4 Hf4 O12'
_cell_volume   273.50934043
_cell_formula_units_Z   4
loop_
 _symmetry_equiv_pos_site_id
 _symmetry_equiv_pos_as_xyz
  1  'x, y, z'
loop_
 _atom_site_type_symbol
 _atom_site_label
 _atom_site_symmetry_multiplicity
 _atom_site_fract_x
 _atom_site_fract_y
 _atom_site_fract_z
 _atom_site_occupancy
  Hf  Hf0  1  0.50000035  0.00000000  0.00000000  1
  Hf  Hf1  1  0.00000000  0.49999988  0.00000000  1
  Hf  Hf2  1  0.50000035  0.00000000  0.49999956  1
  Hf  Hf3  1  0.00000000  0.49999988  0.49999956  1
  La  La4  1  0.99048347  0.06784950  0.24999978  1
  La  La5  1  0.50951582  0.56784937  0.24999978  1
  La  La6  1  0.49048312  0.43215038  0.75000058  1
  La  La7  1  0.00951723  0.93215195  0.75000058  1
  O  O8  1  0.69843267  0.29633271  0.04630606  1
  O  O9  1  0.80156837  0.79633258  0.04630606  1
  O  O10  1  0.08740678  0.48312354  0.24999978  1
  O  O11  1  0.41259181  0.98312342  0.24999978  1
  O  O12  1  0.69843267  0.29633271  0.45369351  1
  O  O13  1  0.80156837  0.79633258  0.45369351  1
  O  O14  1  0.19843233  0.20366717  0.54630685  1
  O  O15  1  0.30156977  0.70366874  0.54630685  1
  O  O16  1  0.58740713  0.01687633  0.75000058  1
  O  O17  1  0.91259391  0.51687790  0.75000058  1
  O  O18  1  0.19843233  0.20366717  0.95369430  1
  O  O19  1  0.30156977  0.70366874  0.95369430  1
