# generated using pymatgen
data_PmGeO3
_symmetry_space_group_name_H-M   'P 1'
_cell_length_a   5.46588679
_cell_length_b   5.82301456
_cell_length_c   7.89442805
_cell_angle_alpha   90.00000000
_cell_angle_beta   90.00000000
_cell_angle_gamma   90.00000000
_symmetry_Int_Tables_number   1
_chemical_formula_structural   PmGeO3
_chemical_formula_sum   'Pm4 Ge4 O12'
_cell_volume   251.26336945
_cell_formula_units_Z   4
loop_
 _symmetry_equiv_pos_site_id
 _symmetry_equiv_pos_as_xyz
  1  'x, y, z'
loop_
 _atom_site_type_symbol
 _atom_site_label
 _atom_site_symmetry_multiplicity
 _atom_site_fract_x
 _atom_site_fract_y
 _atom_site_fract_z
 _atom_site_occupancy
  Ge  Ge0  1  0.49999938  0.00000000  0.00000000  1
  Ge  Ge1  1  0.00000000  0.50000047  0.00000000  1
  Ge  Ge2  1  0.49999938  0.00000000  0.49999949  1
  Ge  Ge3  1  0.00000000  0.50000047  0.49999949  1
  O  O4  1  0.69544250  0.30232451  0.05600406  1
  O  O5  1  0.80455563  0.80232326  0.05600406  1
  O  O6  1  0.10947537  0.46295952  0.24999911  1
  O  O7  1  0.39052400  0.96295827  0.24999911  1
  O  O8  1  0.69544250  0.30232451  0.44399543  1
  O  O9  1  0.80455563  0.80232326  0.44399543  1
  O  O10  1  0.19544313  0.19767768  0.55600481  1
  O  O11  1  0.30455625  0.69767815  0.55600481  1
  O  O12  1  0.60947658  0.03704095  0.74999987  1
  O  O13  1  0.89052338  0.53703970  0.74999987  1
  O  O14  1  0.19544313  0.19767768  0.94399619  1
  O  O15  1  0.30455625  0.69767815  0.94399619  1
  Pm  Pm16  1  0.97978795  0.06792358  0.24999911  1
  Pm  Pm17  1  0.52021202  0.56792577  0.24999911  1
  Pm  Pm18  1  0.47978857  0.43207517  0.74999987  1
  Pm  Pm19  1  0.02021264  0.93207564  0.74999987  1
