# generated using pymatgen
data_TlSbO3
_symmetry_space_group_name_H-M   'P 1'
_cell_length_a   5.75268076
_cell_length_b   5.76808078
_cell_length_c   8.14369955
_cell_angle_alpha   90.00000000
_cell_angle_beta   90.00000000
_cell_angle_gamma   90.00000000
_symmetry_Int_Tables_number   1
_chemical_formula_structural   TlSbO3
_chemical_formula_sum   'Tl4 Sb4 O12'
_cell_volume   270.22364617
_cell_formula_units_Z   4
loop_
 _symmetry_equiv_pos_site_id
 _symmetry_equiv_pos_as_xyz
  1  'x, y, z'
loop_
 _atom_site_type_symbol
 _atom_site_label
 _atom_site_symmetry_multiplicity
 _atom_site_fract_x
 _atom_site_fract_y
 _atom_site_fract_z
 _atom_site_occupancy
  O  O0  1  0.75013375  0.24970524  0.00000000  1
  O  O1  1  0.25013208  0.25029643  0.00000000  1
  O  O2  1  0.74986779  0.74970517  0.00000000  1
  O  O3  1  0.24986612  0.75029462  0.00000000  1
  O  O4  1  0.00045196  0.49775135  0.24999940  1
  O  O5  1  0.49954623  0.99775302  0.24999940  1
  O  O6  1  0.75013375  0.24970524  0.49998406  1
  O  O7  1  0.74986779  0.74970517  0.49998406  1
  O  O8  1  0.25013208  0.25029643  0.50001599  1
  O  O9  1  0.24986612  0.75029462  0.50001599  1
  O  O10  1  0.50045364  0.00224685  0.75000066  1
  O  O11  1  0.99954791  0.50224851  0.75000066  1
  Sb  Sb12  1  0.49999993  0.00000000  0.00000000  1
  Sb  Sb13  1  0.00000000  0.49999993  0.00000000  1
  Sb  Sb14  1  0.49999993  0.00000000  0.50000003  1
  Sb  Sb15  1  0.00000000  0.49999993  0.50000003  1
  Tl  Tl16  1  0.00000000  0.00037447  0.24999940  1
  Tl  Tl17  1  0.49999298  0.50037267  0.24999940  1
  Tl  Tl18  1  0.50000515  0.49962546  0.75000066  1
  Tl  Tl19  1  0.00000000  0.99962539  0.75000066  1
