# generated using pymatgen
data_NpInO3
_symmetry_space_group_name_H-M   'P 1'
_cell_length_a   5.69704695
_cell_length_b   6.00675457
_cell_length_c   8.18406934
_cell_angle_alpha   90.00000000
_cell_angle_beta   90.00000000
_cell_angle_gamma   90.00000000
_symmetry_Int_Tables_number   1
_chemical_formula_structural   NpInO3
_chemical_formula_sum   'Np4 In4 O12'
_cell_volume   280.06509558
_cell_formula_units_Z   4
loop_
 _symmetry_equiv_pos_site_id
 _symmetry_equiv_pos_as_xyz
  1  'x, y, z'
loop_
 _atom_site_type_symbol
 _atom_site_label
 _atom_site_symmetry_multiplicity
 _atom_site_fract_x
 _atom_site_fract_y
 _atom_site_fract_z
 _atom_site_occupancy
  In  In0  1  0.49999939  0.00000000  0.00000000  1
  In  In1  1  0.00000000  0.49999879  0.00000000  1
  In  In2  1  0.49999939  0.00000000  0.49999943  1
  In  In3  1  0.00000000  0.49999879  0.49999943  1
  Np  Np4  1  0.98427133  0.05833766  0.25000033  1
  Np  Np5  1  0.51572684  0.55833811  0.25000033  1
  Np  Np6  1  0.48427194  0.44166279  0.74999975  1
  Np  Np7  1  0.01572745  0.94166325  0.74999975  1
  O  O8  1  0.68813897  0.30818306  0.05990663  1
  O  O9  1  0.81186271  0.80818518  0.05990663  1
  O  O10  1  0.11993407  0.45065933  0.25000033  1
  O  O11  1  0.38006708  0.95066145  0.25000033  1
  O  O12  1  0.68813897  0.30818306  0.44009280  1
  O  O13  1  0.81186271  0.80818518  0.44009280  1
  O  O14  1  0.18813958  0.19181573  0.55990606  1
  O  O15  1  0.31185981  0.69181618  0.55990606  1
  O  O16  1  0.61993170  0.04933946  0.74999975  1
  O  O17  1  0.88006823  0.54933824  0.74999975  1
  O  O18  1  0.18813958  0.19181573  0.94009345  1
  O  O19  1  0.31185981  0.69181618  0.94009345  1
