# generated using pymatgen
data_LiRhO3
_symmetry_space_group_name_H-M   'P 1'
_cell_length_a   4.97001964
_cell_length_b   5.14667999
_cell_length_c   7.26368422
_cell_angle_alpha   90.00000000
_cell_angle_beta   90.00000000
_cell_angle_gamma   90.00000000
_symmetry_Int_Tables_number   1
_chemical_formula_structural   LiRhO3
_chemical_formula_sum   'Li4 Rh4 O12'
_cell_volume   185.79850955
_cell_formula_units_Z   4
loop_
 _symmetry_equiv_pos_site_id
 _symmetry_equiv_pos_as_xyz
  1  'x, y, z'
loop_
 _atom_site_type_symbol
 _atom_site_label
 _atom_site_symmetry_multiplicity
 _atom_site_fract_x
 _atom_site_fract_y
 _atom_site_fract_z
 _atom_site_occupancy
  Li  Li0  1  0.99343672  0.06602120  0.24999985  1
  Li  Li1  1  0.50656339  0.56602120  0.24999985  1
  Li  Li2  1  0.49343668  0.43397880  0.74999956  1
  Li  Li3  1  0.00656335  0.93397880  0.74999956  1
  O  O4  1  0.66368953  0.32969798  0.07202819  1
  O  O5  1  0.83631058  0.82969798  0.07202819  1
  O  O6  1  0.14244008  0.44191207  0.24999985  1
  O  O7  1  0.35755996  0.94191207  0.24999985  1
  O  O8  1  0.66368953  0.32969798  0.42797290  1
  O  O9  1  0.83631058  0.82969798  0.42797290  1
  O  O10  1  0.16368949  0.17030202  0.57202790  1
  O  O11  1  0.33631054  0.67030202  0.57202790  1
  O  O12  1  0.64244012  0.05808793  0.74999956  1
  O  O13  1  0.85755999  0.55808793  0.74999956  1
  O  O14  1  0.16368949  0.17030202  0.92797261  1
  O  O15  1  0.33631054  0.67030202  0.92797261  1
  Rh  Rh16  1  0.50000004  0.00000000  0.00000000  1
  Rh  Rh17  1  0.00000000  0.50000000  0.00000000  1
  Rh  Rh18  1  0.50000004  0.00000000  0.49999971  1
  Rh  Rh19  1  0.00000000  0.50000000  0.49999971  1
