# generated using pymatgen
data_CeInO3
_symmetry_space_group_name_H-M   'P 1'
_cell_length_a   5.71254956
_cell_length_b   5.98469103
_cell_length_c   8.24866971
_cell_angle_alpha   90.00000000
_cell_angle_beta   90.00000000
_cell_angle_gamma   90.00000000
_symmetry_Int_Tables_number   1
_chemical_formula_structural   CeInO3
_chemical_formula_sum   'Ce4 In4 O12'
_cell_volume   282.00423384
_cell_formula_units_Z   4
loop_
 _symmetry_equiv_pos_site_id
 _symmetry_equiv_pos_as_xyz
  1  'x, y, z'
loop_
 _atom_site_type_symbol
 _atom_site_label
 _atom_site_symmetry_multiplicity
 _atom_site_fract_x
 _atom_site_fract_y
 _atom_site_fract_z
 _atom_site_occupancy
  Ce  Ce0  1  0.98157223  0.05944334  0.25000031  1
  Ce  Ce1  1  0.51842876  0.55944409  0.25000031  1
  Ce  Ce2  1  0.48157131  0.44055574  0.74999972  1
  Ce  Ce3  1  0.01842785  0.94055649  0.74999972  1
  In  In4  1  0.49999916  0.00000000  0.00000000  1
  In  In5  1  0.00000000  0.50000075  0.00000000  1
  In  In6  1  0.49999916  0.00000000  0.50000062  1
  In  In7  1  0.00000000  0.50000075  0.50000062  1
  O  O8  1  0.69510644  0.30248011  0.06201970  1
  O  O9  1  0.80489280  0.80247752  0.06201970  1
  O  O10  1  0.11835521  0.45218040  0.25000031  1
  O  O11  1  0.38164395  0.95218115  0.25000031  1
  O  O12  1  0.69510644  0.30248011  0.43798093  1
  O  O13  1  0.80489280  0.80247752  0.43798093  1
  O  O14  1  0.19510553  0.19752064  0.56202032  1
  O  O15  1  0.30489364  0.69752139  0.56202032  1
  O  O16  1  0.61835437  0.04781868  0.74999972  1
  O  O17  1  0.88164487  0.54781943  0.74999972  1
  O  O18  1  0.19510553  0.19752064  0.93798034  1
  O  O19  1  0.30489364  0.69752139  0.93798034  1
