# generated using pymatgen
data_CrPbO3
_symmetry_space_group_name_H-M   'P 1'
_cell_length_a   5.42514638
_cell_length_b   5.55422855
_cell_length_c   7.72385745
_cell_angle_alpha   90.00000000
_cell_angle_beta   90.00000000
_cell_angle_gamma   90.00000000
_symmetry_Int_Tables_number   1
_chemical_formula_structural   CrPbO3
_chemical_formula_sum   'Cr4 Pb4 O12'
_cell_volume   232.73915719
_cell_formula_units_Z   4
loop_
 _symmetry_equiv_pos_site_id
 _symmetry_equiv_pos_as_xyz
  1  'x, y, z'
loop_
 _atom_site_type_symbol
 _atom_site_label
 _atom_site_symmetry_multiplicity
 _atom_site_fract_x
 _atom_site_fract_y
 _atom_site_fract_z
 _atom_site_occupancy
  Cr  Cr0  1  0.49999941  0.00000000  0.00000000  1
  Cr  Cr1  1  0.00000000  0.49999923  0.00000000  1
  Cr  Cr2  1  0.49999941  0.00000000  0.50000016  1
  Cr  Cr3  1  0.00000000  0.49999923  0.50000016  1
  O  O4  1  0.70593856  0.29211978  0.04336305  1
  O  O5  1  0.79406152  0.79212081  0.04336305  1
  O  O6  1  0.08402170  0.47507408  0.24999944  1
  O  O7  1  0.41597772  0.97507331  0.24999944  1
  O  O8  1  0.70593856  0.29211978  0.45663712  1
  O  O9  1  0.79406152  0.79212081  0.45663712  1
  O  O10  1  0.20593914  0.20787945  0.54336321  1
  O  O11  1  0.29406211  0.70788048  0.54336321  1
  O  O12  1  0.58402111  0.02492695  0.74999960  1
  O  O13  1  0.91597897  0.52492618  0.74999960  1
  O  O14  1  0.20593914  0.20787945  0.95663728  1
  O  O15  1  0.29406211  0.70788048  0.95663728  1
  Pb  Pb16  1  0.99123961  0.04299067  0.24999944  1
  Pb  Pb17  1  0.50876047  0.54299170  0.24999944  1
  Pb  Pb18  1  0.49124020  0.45700856  0.74999960  1
  Pb  Pb19  1  0.00875921  0.95700779  0.74999960  1
