# generated using pymatgen
data_TbAlO3
_symmetry_space_group_name_H-M   'P 1'
_cell_length_a   5.23635300
_cell_length_b   5.37614200
_cell_length_c   7.46483400
_cell_angle_alpha   90.00000000
_cell_angle_beta   90.00000000
_cell_angle_gamma   90.00000000
_symmetry_Int_Tables_number   1
_chemical_formula_structural   TbAlO3
_chemical_formula_sum   'Tb4 Al4 O12'
_cell_volume   210.14535834
_cell_formula_units_Z   4
loop_
 _symmetry_equiv_pos_site_id
 _symmetry_equiv_pos_as_xyz
  1  'x, y, z'
loop_
 _atom_site_type_symbol
 _atom_site_label
 _atom_site_symmetry_multiplicity
 _atom_site_fract_x
 _atom_site_fract_y
 _atom_site_fract_z
 _atom_site_occupancy
  Tb  Tb0  1  0.01235700  0.05147900  0.25000000  1
  Tb  Tb1  1  0.51235700  0.44852100  0.75000000  1
  Tb  Tb2  1  0.48764300  0.55147900  0.25000000  1
  Tb  Tb3  1  0.98764300  0.94852100  0.75000000  1
  Al  Al4  1  0.50000000  0.00000000  0.00000000  1
  Al  Al5  1  0.00000000  0.50000000  0.00000000  1
  Al  Al6  1  0.00000000  0.50000000  0.50000000  1
  Al  Al7  1  0.50000000  0.00000000  0.50000000  1
  O  O8  1  0.29166200  0.29198700  0.45578600  1
  O  O9  1  0.79166200  0.20801300  0.54421400  1
  O  O10  1  0.20833800  0.79198700  0.04421400  1
  O  O11  1  0.70833800  0.70801300  0.95578600  1
  O  O12  1  0.70833800  0.70801300  0.54421400  1
  O  O13  1  0.20833800  0.79198700  0.45578600  1
  O  O14  1  0.79166200  0.20801300  0.95578600  1
  O  O15  1  0.29166200  0.29198700  0.04421400  1
  O  O16  1  0.91650700  0.47888200  0.25000000  1
  O  O17  1  0.41650700  0.02111800  0.75000000  1
  O  O18  1  0.58349300  0.97888200  0.25000000  1
  O  O19  1  0.08349300  0.52111800  0.75000000  1
