# generated using pymatgen
data_NdTlO3
_symmetry_space_group_name_H-M   'P 1'
_cell_length_a   5.95492138
_cell_length_b   6.03588100
_cell_length_c   8.70173536
_cell_angle_alpha   90.00000000
_cell_angle_beta   90.00000000
_cell_angle_gamma   90.00000000
_symmetry_Int_Tables_number   1
_chemical_formula_structural   NdTlO3
_chemical_formula_sum   'Nd4 Tl4 O12'
_cell_volume   312.76818639
_cell_formula_units_Z   4
loop_
 _symmetry_equiv_pos_site_id
 _symmetry_equiv_pos_as_xyz
  1  'x, y, z'
loop_
 _atom_site_type_symbol
 _atom_site_label
 _atom_site_symmetry_multiplicity
 _atom_site_fract_x
 _atom_site_fract_y
 _atom_site_fract_z
 _atom_site_occupancy
  Nd  Nd0  1  0.49999988  0.00000000  0.00000000  1
  Nd  Nd1  1  0.00000000  0.49999992  0.00000000  1
  Nd  Nd2  1  0.49999988  0.00000000  0.50000027  1
  Nd  Nd3  1  0.00000000  0.49999992  0.50000027  1
  O  O4  1  0.66113887  0.33442840  0.07732481  1
  O  O5  1  0.83886246  0.83442831  0.07732481  1
  O  O6  1  0.13795480  0.37581921  0.24999956  1
  O  O7  1  0.36204508  0.87581912  0.24999956  1
  O  O8  1  0.66113887  0.33442840  0.42267431  1
  O  O9  1  0.83886246  0.83442831  0.42267431  1
  O  O10  1  0.16113731  0.16557152  0.57732507  1
  O  O11  1  0.33886258  0.66557144  0.57732507  1
  O  O12  1  0.63795469  0.12418071  0.74999983  1
  O  O13  1  0.86204497  0.62418063  0.74999983  1
  O  O14  1  0.16113731  0.16557152  0.92267458  1
  O  O15  1  0.33886258  0.66557144  0.92267458  1
  Tl  Tl16  1  0.99565042  0.03961973  0.24999956  1
  Tl  Tl17  1  0.50434923  0.53961965  0.24999956  1
  Tl  Tl18  1  0.49565054  0.46038018  0.74999983  1
  Tl  Tl19  1  0.00434934  0.96038010  0.74999983  1
