# generated using pymatgen
data_NdTlO3
_symmetry_space_group_name_H-M   'P 1'
_cell_length_a   5.73929291
_cell_length_b   6.11267906
_cell_length_c   8.43856929
_cell_angle_alpha   90.00000000
_cell_angle_beta   90.00000000
_cell_angle_gamma   90.00000000
_symmetry_Int_Tables_number   1
_chemical_formula_structural   NdTlO3
_chemical_formula_sum   'Nd4 Tl4 O12'
_cell_volume   296.04573245
_cell_formula_units_Z   4
loop_
 _symmetry_equiv_pos_site_id
 _symmetry_equiv_pos_as_xyz
  1  'x, y, z'
loop_
 _atom_site_type_symbol
 _atom_site_label
 _atom_site_symmetry_multiplicity
 _atom_site_fract_x
 _atom_site_fract_y
 _atom_site_fract_z
 _atom_site_occupancy
  Nd  Nd0  1  0.97642690  0.06826140  0.24999972  1
  Nd  Nd1  1  0.52357147  0.56826147  0.24999972  1
  Nd  Nd2  1  0.47642803  0.43173868  0.75000036  1
  Nd  Nd3  1  0.02357085  0.93173876  0.75000036  1
  O  O4  1  0.68825203  0.31244075  0.07540141  1
  O  O5  1  0.81174808  0.81244082  0.07540141  1
  O  O6  1  0.14880753  0.42773389  0.24999972  1
  O  O7  1  0.35119309  0.92773397  0.24999972  1
  O  O8  1  0.68825203  0.31244075  0.42459804  1
  O  O9  1  0.81174808  0.81244082  0.42459804  1
  O  O10  1  0.18825316  0.18755933  0.57540204  1
  O  O11  1  0.31174746  0.68755941  0.57540204  1
  O  O12  1  0.64880815  0.07226619  0.75000036  1
  O  O13  1  0.85119196  0.57226626  0.75000036  1
  O  O14  1  0.18825316  0.18755933  0.92459868  1
  O  O15  1  0.31174746  0.68755941  0.92459868  1
  Tl  Tl16  1  0.49999888  0.00000000  0.00000000  1
  Tl  Tl17  1  0.00000000  0.50000008  0.00000000  1
  Tl  Tl18  1  0.49999888  0.00000000  0.50000063  1
  Tl  Tl19  1  0.00000000  0.50000008  0.50000063  1
