# generated using pymatgen
data_VAuO3
_symmetry_space_group_name_H-M   'P 1'
_cell_length_a   3.66113371
_cell_length_b   3.66113371
_cell_length_c   4.33621589
_cell_angle_alpha   90.00000000
_cell_angle_beta   90.00000000
_cell_angle_gamma   90.00000000
_symmetry_Int_Tables_number   1
_chemical_formula_structural   VAuO3
_chemical_formula_sum   'V1 Au1 O3'
_cell_volume   58.12220449
_cell_formula_units_Z   1
loop_
 _symmetry_equiv_pos_site_id
 _symmetry_equiv_pos_as_xyz
  1  'x, y, z'
loop_
 _atom_site_type_symbol
 _atom_site_label
 _atom_site_symmetry_multiplicity
 _atom_site_fract_x
 _atom_site_fract_y
 _atom_site_fract_z
 _atom_site_occupancy
  Au  Au0  1  0.00000000  0.00000000  0.03060964  1
  O  O1  1  0.50000086  0.50000086  0.13323829  1
  O  O2  1  0.50000086  0.00000000  0.60520280  1
  O  O3  1  0.00000000  0.50000086  0.60520280  1
  V  V4  1  0.50000086  0.50000086  0.52574642  1
