# generated using pymatgen
data_CuAsO3
_symmetry_space_group_name_H-M   'P 1'
_cell_length_a   5.08688984
_cell_length_b   5.17032417
_cell_length_c   7.30196482
_cell_angle_alpha   90.00000000
_cell_angle_beta   90.00000000
_cell_angle_gamma   90.00000000
_symmetry_Int_Tables_number   1
_chemical_formula_structural   CuAsO3
_chemical_formula_sum   'Cu4 As4 O12'
_cell_volume   192.04802392
_cell_formula_units_Z   4
loop_
 _symmetry_equiv_pos_site_id
 _symmetry_equiv_pos_as_xyz
  1  'x, y, z'
loop_
 _atom_site_type_symbol
 _atom_site_label
 _atom_site_symmetry_multiplicity
 _atom_site_fract_x
 _atom_site_fract_y
 _atom_site_fract_z
 _atom_site_occupancy
  As  As0  1  0.49999903  0.00000000  0.00000000  1
  As  As1  1  0.00000000  0.49999960  0.00000000  1
  As  As2  1  0.49999903  0.00000000  0.49999967  1
  As  As3  1  0.00000000  0.49999960  0.49999967  1
  Cu  Cu4  1  0.99751325  0.01793311  0.24999983  1
  Cu  Cu5  1  0.50248582  0.51793271  0.24999983  1
  Cu  Cu6  1  0.49751421  0.48206648  0.74999950  1
  Cu  Cu7  1  0.00248678  0.98206608  0.74999950  1
  O  O8  1  0.69218130  0.30250134  0.05974830  1
  O  O9  1  0.80781777  0.80250094  0.05974830  1
  O  O10  1  0.11513715  0.46327076  0.24999983  1
  O  O11  1  0.38486188  0.96327229  0.24999983  1
  O  O12  1  0.69218130  0.30250134  0.44025137  1
  O  O13  1  0.80781777  0.80250094  0.44025137  1
  O  O14  1  0.19218226  0.19749825  0.55974797  1
  O  O15  1  0.30781874  0.69749979  0.55974797  1
  O  O16  1  0.61513815  0.03672884  0.74999950  1
  O  O17  1  0.88486288  0.53672843  0.74999950  1
  O  O18  1  0.19218226  0.19749825  0.94025104  1
  O  O19  1  0.30781874  0.69749979  0.94025104  1
