# generated using pymatgen
data_CeCdO3
_symmetry_space_group_name_H-M   'P 1'
_cell_length_a   5.71400535
_cell_length_b   6.12863858
_cell_length_c   8.20708873
_cell_angle_alpha   90.00000000
_cell_angle_beta   90.00000000
_cell_angle_gamma   90.00000000
_symmetry_Int_Tables_number   1
_chemical_formula_structural   CeCdO3
_chemical_formula_sum   'Ce4 Cd4 O12'
_cell_volume   287.40464481
_cell_formula_units_Z   4
loop_
 _symmetry_equiv_pos_site_id
 _symmetry_equiv_pos_as_xyz
  1  'x, y, z'
loop_
 _atom_site_type_symbol
 _atom_site_label
 _atom_site_symmetry_multiplicity
 _atom_site_fract_x
 _atom_site_fract_y
 _atom_site_fract_z
 _atom_site_occupancy
  Cd  Cd0  1  0.49999953  0.00000000  0.00000000  1
  Cd  Cd1  1  0.00000000  0.50000012  0.00000000  1
  Cd  Cd2  1  0.49999953  0.00000000  0.49999947  1
  Cd  Cd3  1  0.00000000  0.50000012  0.49999947  1
  Ce  Ce4  1  0.97726370  0.07379779  0.24999973  1
  Ce  Ce5  1  0.52273665  0.57379791  0.24999973  1
  Ce  Ce6  1  0.47726417  0.42620232  0.75000042  1
  Ce  Ce7  1  0.02273537  0.92620244  0.75000042  1
  O  O8  1  0.69389154  0.31115557  0.06301991  1
  O  O9  1  0.80610880  0.81115568  0.06301991  1
  O  O10  1  0.12619169  0.45085543  0.24999973  1
  O  O11  1  0.37380784  0.95085555  0.24999973  1
  O  O12  1  0.69389154  0.31115557  0.43697956  1
  O  O13  1  0.80610880  0.81115568  0.43697956  1
  O  O14  1  0.19389026  0.18884455  0.56302060  1
  O  O15  1  0.30610927  0.68884467  0.56302060  1
  O  O16  1  0.62619297  0.04914468  0.75000042  1
  O  O17  1  0.87380737  0.54914480  0.75000042  1
  O  O18  1  0.19389026  0.18884455  0.93698024  1
  O  O19  1  0.30610927  0.68884467  0.93698024  1
