# generated using pymatgen
data_CuTeO3
_symmetry_space_group_name_H-M   'P 1'
_cell_length_a   5.40563750
_cell_length_b   5.68492182
_cell_length_c   7.89228816
_cell_angle_alpha   90.00000000
_cell_angle_beta   90.00000000
_cell_angle_gamma   90.00000000
_symmetry_Int_Tables_number   1
_chemical_formula_structural   CuTeO3
_chemical_formula_sum   'Cu4 Te4 O12'
_cell_volume   242.53496012
_cell_formula_units_Z   4
loop_
 _symmetry_equiv_pos_site_id
 _symmetry_equiv_pos_as_xyz
  1  'x, y, z'
loop_
 _atom_site_type_symbol
 _atom_site_label
 _atom_site_symmetry_multiplicity
 _atom_site_fract_x
 _atom_site_fract_y
 _atom_site_fract_z
 _atom_site_occupancy
  Cu  Cu0  1  0.48251663  0.44471324  0.24999974  1
  Cu  Cu1  1  0.01748360  0.94471340  0.24999974  1
  Cu  Cu2  1  0.98251640  0.05528660  0.75000049  1
  Cu  Cu3  1  0.51748383  0.55528644  0.75000049  1
  O  O4  1  0.68874208  0.30836660  0.06623808  1
  O  O5  1  0.81125677  0.80836644  0.06623808  1
  O  O6  1  0.12836599  0.49080182  0.24999974  1
  O  O7  1  0.37163424  0.99080166  0.24999974  1
  O  O8  1  0.68874208  0.30836660  0.43376267  1
  O  O9  1  0.81125677  0.80836644  0.43376267  1
  O  O10  1  0.18874370  0.19163324  0.56623756  1
  O  O11  1  0.31125654  0.69163308  0.56623756  1
  O  O12  1  0.62836622  0.00919802  0.75000049  1
  O  O13  1  0.87163447  0.50919786  0.75000049  1
  O  O14  1  0.18874370  0.19163324  0.93376215  1
  O  O15  1  0.31125654  0.69163308  0.93376215  1
  Te  Te16  1  0.50000023  0.00000000  0.00000000  1
  Te  Te17  1  0.00000000  0.49999984  0.00000000  1
  Te  Te18  1  0.50000023  0.00000000  0.49999948  1
  Te  Te19  1  0.00000000  0.49999984  0.49999948  1
