# generated using pymatgen
data_AcAuO3
_symmetry_space_group_name_H-M   'P 1'
_cell_length_a   4.16859967
_cell_length_b   4.16859967
_cell_length_c   4.28018370
_cell_angle_alpha   90.00000000
_cell_angle_beta   90.00000000
_cell_angle_gamma   90.00000000
_symmetry_Int_Tables_number   1
_chemical_formula_structural   AcAuO3
_chemical_formula_sum   'Ac1 Au1 O3'
_cell_volume   74.37770744
_cell_formula_units_Z   1
loop_
 _symmetry_equiv_pos_site_id
 _symmetry_equiv_pos_as_xyz
  1  'x, y, z'
loop_
 _atom_site_type_symbol
 _atom_site_label
 _atom_site_symmetry_multiplicity
 _atom_site_fract_x
 _atom_site_fract_y
 _atom_site_fract_z
 _atom_site_occupancy
  Ac  Ac0  1  0.00000000  0.00000000  0.01019349  1
  Au  Au1  1  0.50000004  0.50000004  0.57482346  1
  O  O2  1  0.50000004  0.50000004  0.07695698  1
  O  O3  1  0.50000004  0.00000000  0.61901315  1
  O  O4  1  0.00000000  0.50000004  0.61901315  1
