# generated using pymatgen
data_PbWO3
_symmetry_space_group_name_H-M   'P 1'
_cell_length_a   4.01616542
_cell_length_b   4.01616542
_cell_length_c   4.01616542
_cell_angle_alpha   90.00000000
_cell_angle_beta   90.00000000
_cell_angle_gamma   90.00000000
_symmetry_Int_Tables_number   1
_chemical_formula_structural   PbWO3
_chemical_formula_sum   'Pb1 W1 O3'
_cell_volume   64.77908038
_cell_formula_units_Z   1
loop_
 _symmetry_equiv_pos_site_id
 _symmetry_equiv_pos_as_xyz
  1  'x, y, z'
loop_
 _atom_site_type_symbol
 _atom_site_label
 _atom_site_symmetry_multiplicity
 _atom_site_fract_x
 _atom_site_fract_y
 _atom_site_fract_z
 _atom_site_occupancy
  O  O0  1  0.49999932  0.49999932  0.00000000  1
  O  O1  1  0.49999932  0.00000000  0.49999932  1
  O  O2  1  0.00000000  0.49999932  0.49999932  1
  Pb  Pb3  1  0.00000000  0.00000000  0.00000000  1
  W  W4  1  0.49999932  0.49999932  0.49999932  1
