# generated using pymatgen
data_NdAlO3
_symmetry_space_group_name_H-M   'P 1'
_cell_length_a   5.34044759
_cell_length_b   5.30960452
_cell_length_c   7.51629904
_cell_angle_alpha   90.00000000
_cell_angle_beta   90.00000000
_cell_angle_gamma   90.00000000
_symmetry_Int_Tables_number   1
_chemical_formula_structural   NdAlO3
_chemical_formula_sum   'Nd4 Al4 O12'
_cell_volume   213.12965501
_cell_formula_units_Z   4
loop_
 _symmetry_equiv_pos_site_id
 _symmetry_equiv_pos_as_xyz
  1  'x, y, z'
loop_
 _atom_site_type_symbol
 _atom_site_label
 _atom_site_symmetry_multiplicity
 _atom_site_fract_x
 _atom_site_fract_y
 _atom_site_fract_z
 _atom_site_occupancy
  Al  Al0  1  0.49999929  0.00000000  0.00000000  1
  Al  Al1  1  0.00000000  0.49999957  0.00000000  1
  Al  Al2  1  0.49999929  0.00000000  0.50000006  1
  Al  Al3  1  0.00000000  0.49999957  0.50000006  1
  Nd  Nd4  1  0.99561505  0.01657186  0.25000070  1
  Nd  Nd5  1  0.50438469  0.51657143  0.25000070  1
  Nd  Nd6  1  0.49561389  0.48342772  0.75000076  1
  Nd  Nd7  1  0.00438540  0.98342918  0.75000076  1
  O  O8  1  0.73331494  0.26733441  0.03186276  1
  O  O9  1  0.76668480  0.76733399  0.03186276  1
  O  O10  1  0.06012230  0.49492387  0.25000070  1
  O  O11  1  0.43987699  0.99492344  0.25000070  1
  O  O12  1  0.73331494  0.26733441  0.46813731  1
  O  O13  1  0.76668480  0.76733399  0.46813731  1
  O  O14  1  0.23331378  0.23266705  0.53186149  1
  O  O15  1  0.26668551  0.73266662  0.53186149  1
  O  O16  1  0.56012346  0.00507571  0.75000076  1
  O  O17  1  0.93987628  0.50507528  0.75000076  1
  O  O18  1  0.23331378  0.23266705  0.96813737  1
  O  O19  1  0.26668551  0.73266662  0.96813737  1
