# generated using pymatgen
data_HfSbO3
_symmetry_space_group_name_H-M   'P 1'
_cell_length_a   5.67824964
_cell_length_b   5.74958030
_cell_length_c   8.20774120
_cell_angle_alpha   90.00000000
_cell_angle_beta   90.00000000
_cell_angle_gamma   90.00000000
_symmetry_Int_Tables_number   1
_chemical_formula_structural   HfSbO3
_chemical_formula_sum   'Hf4 Sb4 O12'
_cell_volume   267.96265980
_cell_formula_units_Z   4
loop_
 _symmetry_equiv_pos_site_id
 _symmetry_equiv_pos_as_xyz
  1  'x, y, z'
loop_
 _atom_site_type_symbol
 _atom_site_label
 _atom_site_symmetry_multiplicity
 _atom_site_fract_x
 _atom_site_fract_y
 _atom_site_fract_z
 _atom_site_occupancy
  Hf  Hf0  1  0.49999915  0.00000000  0.00000000  1
  Hf  Hf1  1  0.00000000  0.49999997  0.00000000  1
  Hf  Hf2  1  0.49999915  0.00000000  0.49999993  1
  Hf  Hf3  1  0.00000000  0.49999997  0.49999993  1
  O  O4  1  0.67520103  0.32327229  0.01662333  1
  O  O5  1  0.82479995  0.82327227  0.01662333  1
  O  O6  1  0.02312332  0.49896164  0.25000057  1
  O  O7  1  0.47687759  0.99896161  0.25000057  1
  O  O8  1  0.67520103  0.32327229  0.48337660  1
  O  O9  1  0.82479995  0.82327227  0.48337660  1
  O  O10  1  0.17520012  0.17672768  0.51662326  1
  O  O11  1  0.32479903  0.67672766  0.51662326  1
  O  O12  1  0.52312247  0.00103834  0.75000050  1
  O  O13  1  0.97687674  0.50103831  0.75000050  1
  O  O14  1  0.17520012  0.17672768  0.98337652  1
  O  O15  1  0.32479903  0.67672766  0.98337652  1
  Sb  Sb16  1  0.51562897  0.48167342  0.25000057  1
  Sb  Sb17  1  0.98437201  0.98167344  0.25000057  1
  Sb  Sb18  1  0.01562806  0.01832656  0.75000050  1
  Sb  Sb19  1  0.48437110  0.51832653  0.75000050  1
