# generated using pymatgen
data_NbGaO3
_symmetry_space_group_name_H-M   'P 1'
_cell_length_a   5.65555484
_cell_length_b   5.66163402
_cell_length_c   7.99610053
_cell_angle_alpha   90.00000000
_cell_angle_beta   90.00000000
_cell_angle_gamma   90.00000000
_symmetry_Int_Tables_number   1
_chemical_formula_structural   NbGaO3
_chemical_formula_sum   'Nb4 Ga4 O12'
_cell_volume   256.03259351
_cell_formula_units_Z   4
loop_
 _symmetry_equiv_pos_site_id
 _symmetry_equiv_pos_as_xyz
  1  'x, y, z'
loop_
 _atom_site_type_symbol
 _atom_site_label
 _atom_site_symmetry_multiplicity
 _atom_site_fract_x
 _atom_site_fract_y
 _atom_site_fract_z
 _atom_site_occupancy
  Ga  Ga0  1  0.50102600  0.49912092  0.24999936  1
  Ga  Ga1  1  0.99897537  0.99912145  0.24999936  1
  Ga  Ga2  1  0.00102554  0.00087784  0.74999932  1
  Ga  Ga3  1  0.49897668  0.50087837  0.74999932  1
  Nb  Nb4  1  0.50000046  0.00000000  0.00000000  1
  Nb  Nb5  1  0.00000000  0.50000053  0.00000000  1
  Nb  Nb6  1  0.50000046  0.00000000  0.49999997  1
  Nb  Nb7  1  0.00000000  0.50000053  0.49999997  1
  O  O8  1  0.73614528  0.26387788  0.01544878  1
  O  O9  1  0.76385432  0.76387841  0.01544878  1
  O  O10  1  0.03156189  0.49977621  0.24999936  1
  O  O11  1  0.46843857  0.99977568  0.24999936  1
  O  O12  1  0.73614528  0.26387788  0.48455244  1
  O  O13  1  0.76385432  0.76387841  0.48455244  1
  O  O14  1  0.23614482  0.23612265  0.51544875  1
  O  O15  1  0.26385386  0.73612141  0.51544875  1
  O  O16  1  0.53156058  0.00022432  0.74999932  1
  O  O17  1  0.96843902  0.50022485  0.74999932  1
  O  O18  1  0.23614482  0.23612265  0.98455240  1
  O  O19  1  0.26385386  0.73612141  0.98455240  1
