# generated using pymatgen
data_NbGaO3
_symmetry_space_group_name_H-M   'P 1'
_cell_length_a   5.31674869
_cell_length_b   5.48612530
_cell_length_c   7.24089799
_cell_angle_alpha   90.00000000
_cell_angle_beta   90.00000000
_cell_angle_gamma   90.00000000
_symmetry_Int_Tables_number   1
_chemical_formula_structural   NbGaO3
_chemical_formula_sum   'Nb4 Ga4 O12'
_cell_volume   211.20504325
_cell_formula_units_Z   4
loop_
 _symmetry_equiv_pos_site_id
 _symmetry_equiv_pos_as_xyz
  1  'x, y, z'
loop_
 _atom_site_type_symbol
 _atom_site_label
 _atom_site_symmetry_multiplicity
 _atom_site_fract_x
 _atom_site_fract_y
 _atom_site_fract_z
 _atom_site_occupancy
  Ga  Ga0  1  0.49999918  0.00000000  0.00000000  1
  Ga  Ga1  1  0.00000000  0.49999952  0.00000000  1
  Ga  Ga2  1  0.49999918  0.00000000  0.50000014  1
  Ga  Ga3  1  0.00000000  0.49999952  0.50000014  1
  Nb  Nb4  1  0.00624818  0.06064754  0.24999938  1
  Nb  Nb5  1  0.49375100  0.56064888  0.24999938  1
  Nb  Nb6  1  0.50624924  0.43935198  0.74999952  1
  Nb  Nb7  1  0.99375182  0.93935149  0.74999952  1
  O  O8  1  0.66630571  0.32768300  0.04863899  1
  O  O9  1  0.83369372  0.82768252  0.04863899  1
  O  O10  1  0.11622329  0.43842054  0.24999938  1
  O  O11  1  0.38377778  0.93842005  0.24999938  1
  O  O12  1  0.66630571  0.32768300  0.45136114  1
  O  O13  1  0.83369372  0.82768252  0.45136114  1
  O  O14  1  0.16630464  0.17231652  0.54863913  1
  O  O15  1  0.33369454  0.67231786  0.54863913  1
  O  O16  1  0.61622247  0.06158080  0.74999952  1
  O  O17  1  0.88377696  0.56158032  0.74999952  1
  O  O18  1  0.16630464  0.17231652  0.95136128  1
  O  O19  1  0.33369454  0.67231786  0.95136128  1
