# generated using pymatgen
data_CeCoO3
_symmetry_space_group_name_H-M   'P 1'
_cell_length_a   5.47464936
_cell_length_b   5.39774005
_cell_length_c   7.72490457
_cell_angle_alpha   90.00000000
_cell_angle_beta   90.00000000
_cell_angle_gamma   90.00000000
_symmetry_Int_Tables_number   1
_chemical_formula_structural   CeCoO3
_chemical_formula_sum   'Ce4 Co4 O12'
_cell_volume   228.27660134
_cell_formula_units_Z   4
loop_
 _symmetry_equiv_pos_site_id
 _symmetry_equiv_pos_as_xyz
  1  'x, y, z'
loop_
 _atom_site_type_symbol
 _atom_site_label
 _atom_site_symmetry_multiplicity
 _atom_site_fract_x
 _atom_site_fract_y
 _atom_site_fract_z
 _atom_site_occupancy
  Ce  Ce0  1  0.99650400  0.02202403  0.24999920  1
  Ce  Ce1  1  0.50349526  0.52202403  0.24999920  1
  Ce  Ce2  1  0.49650486  0.47797596  0.74999891  1
  Ce  Ce3  1  0.00349611  0.97797596  0.74999891  1
  Co  Co4  1  0.50000097  0.00000000  0.00000000  1
  Co  Co5  1  0.00000000  0.50000000  0.00000000  1
  Co  Co6  1  0.50000097  0.00000000  0.49999970  1
  Co  Co7  1  0.00000000  0.50000000  0.49999970  1
  O  O8  1  0.72991159  0.27064660  0.03532341  1
  O  O9  1  0.77009133  0.77064660  0.03532341  1
  O  O10  1  0.06361686  0.49484969  0.24999920  1
  O  O11  1  0.43638411  0.99484969  0.24999920  1
  O  O12  1  0.72991159  0.27064660  0.46467629  1
  O  O13  1  0.77009133  0.77064660  0.46467629  1
  O  O14  1  0.22991061  0.22935339  0.53532312  1
  O  O15  1  0.27009036  0.72935339  0.53532312  1
  O  O16  1  0.56361418  0.00515030  0.74999891  1
  O  O17  1  0.93638508  0.50515030  0.74999891  1
  O  O18  1  0.22991061  0.22935339  0.96467599  1
  O  O19  1  0.27009036  0.72935339  0.96467599  1
