# generated using pymatgen
data_CeCoO3
_symmetry_space_group_name_H-M   'P 1'
_cell_length_a   5.54934163
_cell_length_b   6.41638654
_cell_length_c   8.94323928
_cell_angle_alpha   90.00000000
_cell_angle_beta   90.00000000
_cell_angle_gamma   90.00000000
_symmetry_Int_Tables_number   1
_chemical_formula_structural   CeCoO3
_chemical_formula_sum   'Ce4 Co4 O12'
_cell_volume   318.43942517
_cell_formula_units_Z   4
loop_
 _symmetry_equiv_pos_site_id
 _symmetry_equiv_pos_as_xyz
  1  'x, y, z'
loop_
 _atom_site_type_symbol
 _atom_site_label
 _atom_site_symmetry_multiplicity
 _atom_site_fract_x
 _atom_site_fract_y
 _atom_site_fract_z
 _atom_site_occupancy
  Ce  Ce0  1  0.49999985  0.00000000  0.00000000  1
  Ce  Ce1  1  0.00000000  0.50000105  0.00000000  1
  Ce  Ce2  1  0.49999985  0.00000000  0.50000004  1
  Ce  Ce3  1  0.00000000  0.50000105  0.50000004  1
  Co  Co4  1  0.48536929  0.40274382  0.25000002  1
  Co  Co5  1  0.01462876  0.90274175  0.25000002  1
  Co  Co6  1  0.98536914  0.09725567  0.74999894  1
  Co  Co7  1  0.51462862  0.59725672  0.74999894  1
  O  O8  1  0.63914789  0.33348677  0.08382086  1
  O  O9  1  0.86085347  0.83348626  0.08382086  1
  O  O10  1  0.17643354  0.47566960  0.25000002  1
  O  O11  1  0.32356811  0.97567065  0.25000002  1
  O  O12  1  0.63914789  0.33348677  0.41617918  1
  O  O13  1  0.86085347  0.83348626  0.41617918  1
  O  O14  1  0.13914984  0.16651428  0.58382090  1
  O  O15  1  0.36085182  0.66651377  0.58382090  1
  O  O16  1  0.67643159  0.02432833  0.74999894  1
  O  O17  1  0.82356797  0.52432938  0.74999894  1
  O  O18  1  0.13914984  0.16651428  0.91618034  1
  O  O19  1  0.36085182  0.66651377  0.91618034  1
