# generated using pymatgen
data_CsInO3
_symmetry_space_group_name_H-M   'P 1'
_cell_length_a   6.14273416
_cell_length_b   6.14273416
_cell_length_c   6.14273425
_cell_angle_alpha   59.91863699
_cell_angle_beta   59.91863699
_cell_angle_gamma   59.91864340
_symmetry_Int_Tables_number   1
_chemical_formula_structural   CsInO3
_chemical_formula_sum   'Cs2 In2 O6'
_cell_volume   163.59419823
_cell_formula_units_Z   2
loop_
 _symmetry_equiv_pos_site_id
 _symmetry_equiv_pos_as_xyz
  1  'x, y, z'
loop_
 _atom_site_type_symbol
 _atom_site_label
 _atom_site_symmetry_multiplicity
 _atom_site_fract_x
 _atom_site_fract_y
 _atom_site_fract_z
 _atom_site_occupancy
  Cs  Cs0  1  0.25000053  0.25000053  0.25000046  1
  Cs  Cs1  1  0.75000025  0.75000025  0.75000005  1
  In  In2  1  0.00000000  0.00000000  0.00000000  1
  In  In3  1  0.49999973  0.49999973  0.49999959  1
  O  O4  1  0.75000162  0.25172764  0.24827193  1
  O  O5  1  0.74827419  0.75172641  0.24999827  1
  O  O6  1  0.24827376  0.74999997  0.25172746  1
  O  O7  1  0.75172635  0.25000015  0.74827238  1
  O  O8  1  0.25172592  0.24827370  0.75000157  1
  O  O9  1  0.24999849  0.74827248  0.75172791  1
