# generated using pymatgen
data_CeTcO3
_symmetry_space_group_name_H-M   'P 1'
_cell_length_a   5.47792076
_cell_length_b   5.90344339
_cell_length_c   7.91832974
_cell_angle_alpha   90.00000000
_cell_angle_beta   90.00000000
_cell_angle_gamma   90.00000000
_symmetry_Int_Tables_number   1
_chemical_formula_structural   CeTcO3
_chemical_formula_sum   'Ce4 Tc4 O12'
_cell_volume   256.06765914
_cell_formula_units_Z   4
loop_
 _symmetry_equiv_pos_site_id
 _symmetry_equiv_pos_as_xyz
  1  'x, y, z'
loop_
 _atom_site_type_symbol
 _atom_site_label
 _atom_site_symmetry_multiplicity
 _atom_site_fract_x
 _atom_site_fract_y
 _atom_site_fract_z
 _atom_site_occupancy
  Ce  Ce0  1  0.97701486  0.07015736  0.24999969  1
  Ce  Ce1  1  0.52298493  0.57015707  0.24999969  1
  Ce  Ce2  1  0.47701493  0.42984235  0.75000034  1
  Ce  Ce3  1  0.02298500  0.92984376  0.75000034  1
  O  O4  1  0.69158905  0.29856981  0.04816167  1
  O  O5  1  0.80841074  0.79856953  0.04816167  1
  O  O6  1  0.10201316  0.47077778  0.24999969  1
  O  O7  1  0.39798677  0.97077750  0.24999969  1
  O  O8  1  0.69158905  0.29856981  0.45183898  1
  O  O9  1  0.80841074  0.79856953  0.45183898  1
  O  O10  1  0.19158912  0.20142990  0.54816106  1
  O  O11  1  0.30841081  0.70142961  0.54816106  1
  O  O12  1  0.60201309  0.02922193  0.75000034  1
  O  O13  1  0.89798670  0.52922334  0.75000034  1
  O  O14  1  0.19158912  0.20142990  0.95183836  1
  O  O15  1  0.30841081  0.70142961  0.95183836  1
  Tc  Tc16  1  0.49999993  0.00000000  0.00000000  1
  Tc  Tc17  1  0.00000000  0.49999971  0.00000000  1
  Tc  Tc18  1  0.49999993  0.00000000  0.49999939  1
  Tc  Tc19  1  0.00000000  0.49999971  0.49999939  1
