# generated using pymatgen
data_CaPbO3
_symmetry_space_group_name_H-M   'P 1'
_cell_length_a   5.76038300
_cell_length_b   5.98177800
_cell_length_c   8.27381400
_cell_angle_alpha   90.00000000
_cell_angle_beta   90.00000000
_cell_angle_gamma   90.00000000
_symmetry_Int_Tables_number   1
_chemical_formula_structural   CaPbO3
_chemical_formula_sum   'Ca4 Pb4 O12'
_cell_volume   285.09355839
_cell_formula_units_Z   4
loop_
 _symmetry_equiv_pos_site_id
 _symmetry_equiv_pos_as_xyz
  1  'x, y, z'
loop_
 _atom_site_type_symbol
 _atom_site_label
 _atom_site_symmetry_multiplicity
 _atom_site_fract_x
 _atom_site_fract_y
 _atom_site_fract_z
 _atom_site_occupancy
  Ca  Ca0  1  0.98418500  0.05866200  0.25000000  1
  Ca  Ca1  1  0.48418500  0.44133800  0.75000000  1
  Ca  Ca2  1  0.51581500  0.55866200  0.25000000  1
  Ca  Ca3  1  0.01581500  0.94133800  0.75000000  1
  Pb  Pb4  1  0.50000000  0.00000000  0.00000000  1
  Pb  Pb5  1  0.00000000  0.50000000  0.00000000  1
  Pb  Pb6  1  0.00000000  0.50000000  0.50000000  1
  Pb  Pb7  1  0.50000000  0.00000000  0.50000000  1
  O  O8  1  0.68871400  0.30660700  0.43275000  1
  O  O9  1  0.18871400  0.19339300  0.56725000  1
  O  O10  1  0.81128600  0.80660700  0.06725000  1
  O  O11  1  0.31128600  0.69339300  0.93275000  1
  O  O12  1  0.31128600  0.69339300  0.56725000  1
  O  O13  1  0.81128600  0.80660700  0.43275000  1
  O  O14  1  0.18871400  0.19339300  0.93275000  1
  O  O15  1  0.68871400  0.30660700  0.06725000  1
  O  O16  1  0.12841800  0.43680200  0.25000000  1
  O  O17  1  0.62841800  0.06319800  0.75000000  1
  O  O18  1  0.37158200  0.93680200  0.25000000  1
  O  O19  1  0.87158200  0.56319800  0.75000000  1
