# generated using pymatgen
data_ZrNpO3
_symmetry_space_group_name_H-M   'P 1'
_cell_length_a   5.66186261
_cell_length_b   6.13982904
_cell_length_c   7.85062980
_cell_angle_alpha   90.00000000
_cell_angle_beta   90.00000000
_cell_angle_gamma   90.00000000
_symmetry_Int_Tables_number   1
_chemical_formula_structural   ZrNpO3
_chemical_formula_sum   'Zr4 Np4 O12'
_cell_volume   272.91041113
_cell_formula_units_Z   4
loop_
 _symmetry_equiv_pos_site_id
 _symmetry_equiv_pos_as_xyz
  1  'x, y, z'
loop_
 _atom_site_type_symbol
 _atom_site_label
 _atom_site_symmetry_multiplicity
 _atom_site_fract_x
 _atom_site_fract_y
 _atom_site_fract_z
 _atom_site_occupancy
  Np  Np0  1  0.97405401  0.07473987  0.25000032  1
  Np  Np1  1  0.52594706  0.57474076  0.25000032  1
  Np  Np2  1  0.47405424  0.42525940  0.74999970  1
  Np  Np3  1  0.02594729  0.92526029  0.74999970  1
  O  O4  1  0.68217480  0.30709813  0.05207098  1
  O  O5  1  0.81782627  0.80709739  0.05207098  1
  O  O6  1  0.14596787  0.44214260  0.25000032  1
  O  O7  1  0.35403190  0.94214350  0.25000032  1
  O  O8  1  0.68217480  0.30709813  0.44792967  1
  O  O9  1  0.81782627  0.80709739  0.44792967  1
  O  O10  1  0.18217327  0.19290277  0.55207163  1
  O  O11  1  0.31782474  0.69290203  0.55207163  1
  O  O12  1  0.64596764  0.05785666  0.74999970  1
  O  O13  1  0.85403344  0.55785755  0.74999970  1
  O  O14  1  0.18217327  0.19290277  0.94792904  1
  O  O15  1  0.31782474  0.69290203  0.94792904  1
  Zr  Zr16  1  0.49999977  0.00000000  0.00000000  1
  Zr  Zr17  1  0.00000000  0.49999926  0.00000000  1
  Zr  Zr18  1  0.49999977  0.00000000  0.49999938  1
  Zr  Zr19  1  0.00000000  0.49999926  0.49999938  1
