# generated using pymatgen
data_PuFeO3
_symmetry_space_group_name_H-M   'P 1'
_cell_length_a   5.67704620
_cell_length_b   6.06186193
_cell_length_c   8.32091328
_cell_angle_alpha   90.00000000
_cell_angle_beta   90.00000000
_cell_angle_gamma   90.00000000
_symmetry_Int_Tables_number   1
_chemical_formula_structural   PuFeO3
_chemical_formula_sum   'Pu4 Fe4 O12'
_cell_volume   286.35150159
_cell_formula_units_Z   4
loop_
 _symmetry_equiv_pos_site_id
 _symmetry_equiv_pos_as_xyz
  1  'x, y, z'
loop_
 _atom_site_type_symbol
 _atom_site_label
 _atom_site_symmetry_multiplicity
 _atom_site_fract_x
 _atom_site_fract_y
 _atom_site_fract_z
 _atom_site_occupancy
  Fe  Fe0  1  0.48932841  0.44134625  0.25000020  1
  Fe  Fe1  1  0.01067104  0.94134609  0.25000020  1
  Fe  Fe2  1  0.98932963  0.05865525  0.75000061  1
  Fe  Fe3  1  0.51067226  0.55865509  0.75000061  1
  O  O4  1  0.66483870  0.32682533  0.06873645  1
  O  O5  1  0.83515966  0.82682517  0.06873645  1
  O  O6  1  0.14898769  0.46164859  0.25000020  1
  O  O7  1  0.35101353  0.96165008  0.25000020  1
  O  O8  1  0.66483870  0.32682533  0.43126516  1
  O  O9  1  0.83515966  0.82682517  0.43126516  1
  O  O10  1  0.16484100  0.17317616  0.56873565  1
  O  O11  1  0.33516021  0.67317601  0.56873565  1
  O  O12  1  0.64898714  0.03835125  0.75000061  1
  O  O13  1  0.85101298  0.53835109  0.75000061  1
  O  O14  1  0.16484100  0.17317616  0.93126436  1
  O  O15  1  0.33516021  0.67317601  0.93126436  1
  Pu  Pu16  1  0.49999769  0.00000000  0.00000000  1
  Pu  Pu17  1  0.00000000  0.49999984  0.00000000  1
  Pu  Pu18  1  0.49999769  0.00000000  0.50000040  1
  Pu  Pu19  1  0.00000000  0.49999984  0.50000040  1
