# generated using pymatgen
data_NdRuO3
_symmetry_space_group_name_H-M   'P 1'
_cell_length_a   5.34703472
_cell_length_b   5.88802338
_cell_length_c   7.77180660
_cell_angle_alpha   90.00000000
_cell_angle_beta   90.00000000
_cell_angle_gamma   90.00000000
_symmetry_Int_Tables_number   1
_chemical_formula_structural   NdRuO3
_chemical_formula_sum   'Nd4 Ru4 O12'
_cell_volume   244.68340436
_cell_formula_units_Z   4
loop_
 _symmetry_equiv_pos_site_id
 _symmetry_equiv_pos_as_xyz
  1  'x, y, z'
loop_
 _atom_site_type_symbol
 _atom_site_label
 _atom_site_symmetry_multiplicity
 _atom_site_fract_x
 _atom_site_fract_y
 _atom_site_fract_z
 _atom_site_occupancy
  Nd  Nd0  1  0.97291121  0.07574359  0.24999979  1
  Nd  Nd1  1  0.52708840  0.57574330  0.24999979  1
  Nd  Nd2  1  0.47291258  0.42425783  0.74999936  1
  Nd  Nd3  1  0.02708791  0.92425754  0.74999936  1
  O  O4  1  0.68341056  0.30392542  0.05179105  1
  O  O5  1  0.81658905  0.80392514  0.05179105  1
  O  O6  1  0.11051172  0.46217208  0.24999979  1
  O  O7  1  0.38948877  0.96217349  0.24999979  1
  O  O8  1  0.68341056  0.30392542  0.44820853  1
  O  O9  1  0.81658905  0.80392514  0.44820853  1
  O  O10  1  0.18341007  0.19607429  0.55179191  1
  O  O11  1  0.31658856  0.69607400  0.55179191  1
  O  O12  1  0.61051221  0.03782764  0.74999936  1
  O  O13  1  0.88948927  0.53782735  0.74999936  1
  O  O14  1  0.18341007  0.19607429  0.94820810  1
  O  O15  1  0.31658856  0.69607400  0.94820810  1
  Ru  Ru16  1  0.50000049  0.00000000  0.00000000  1
  Ru  Ru17  1  0.00000000  0.49999971  0.00000000  1
  Ru  Ru18  1  0.50000049  0.00000000  0.49999958  1
  Ru  Ru19  1  0.00000000  0.49999971  0.49999958  1
