# generated using pymatgen
data_NdAgO3
_symmetry_space_group_name_H-M   'P 1'
_cell_length_a   5.56880563
_cell_length_b   5.99207508
_cell_length_c   7.96873978
_cell_angle_alpha   90.00000000
_cell_angle_beta   90.00000000
_cell_angle_gamma   90.00000000
_symmetry_Int_Tables_number   1
_chemical_formula_structural   NdAgO3
_chemical_formula_sum   'Nd4 Ag4 O12'
_cell_volume   265.90649898
_cell_formula_units_Z   4
loop_
 _symmetry_equiv_pos_site_id
 _symmetry_equiv_pos_as_xyz
  1  'x, y, z'
loop_
 _atom_site_type_symbol
 _atom_site_label
 _atom_site_symmetry_multiplicity
 _atom_site_fract_x
 _atom_site_fract_y
 _atom_site_fract_z
 _atom_site_occupancy
  Ag  Ag0  1  0.49999949  0.00000000  0.00000000  1
  Ag  Ag1  1  0.00000000  0.50000041  0.00000000  1
  Ag  Ag2  1  0.49999949  0.00000000  0.50000001  1
  Ag  Ag3  1  0.00000000  0.50000041  0.50000001  1
  Nd  Nd4  1  0.97553055  0.07705845  0.24999938  1
  Nd  Nd5  1  0.52446973  0.57705886  0.24999938  1
  Nd  Nd6  1  0.47553105  0.42294196  0.74999939  1
  Nd  Nd7  1  0.02447024  0.92294070  0.74999939  1
  O  O8  1  0.69485097  0.31051513  0.06059176  1
  O  O9  1  0.80514931  0.81051554  0.06059176  1
  O  O10  1  0.12400325  0.45465051  0.24999938  1
  O  O11  1  0.37599804  0.95465092  0.24999938  1
  O  O12  1  0.69485097  0.31051513  0.43940825  1
  O  O13  1  0.80514931  0.81051554  0.43940825  1
  O  O14  1  0.19484968  0.18948528  0.56059178  1
  O  O15  1  0.30514981  0.68948402  0.56059178  1
  O  O16  1  0.62400274  0.04534990  0.74999939  1
  O  O17  1  0.87599753  0.54535031  0.74999939  1
  O  O18  1  0.19484968  0.18948528  0.93940826  1
  O  O19  1  0.30514981  0.68948402  0.93940826  1
