# generated using pymatgen
data_TePbO3
_symmetry_space_group_name_H-M   'P 1'
_cell_length_a   5.99942041
_cell_length_b   6.05958919
_cell_length_c   8.49149901
_cell_angle_alpha   90.00000000
_cell_angle_beta   90.00000000
_cell_angle_gamma   90.00000000
_symmetry_Int_Tables_number   1
_chemical_formula_structural   TePbO3
_chemical_formula_sum   'Te4 Pb4 O12'
_cell_volume   308.70015083
_cell_formula_units_Z   4
loop_
 _symmetry_equiv_pos_site_id
 _symmetry_equiv_pos_as_xyz
  1  'x, y, z'
loop_
 _atom_site_type_symbol
 _atom_site_label
 _atom_site_symmetry_multiplicity
 _atom_site_fract_x
 _atom_site_fract_y
 _atom_site_fract_z
 _atom_site_occupancy
  O  O0  1  0.71754931  0.27855354  0.02543603  1
  O  O1  1  0.78245058  0.77855443  0.02543603  1
  O  O2  1  0.05845065  0.49610624  0.24999944  1
  O  O3  1  0.44154932  0.99610535  0.24999944  1
  O  O4  1  0.71754931  0.27855354  0.47456403  1
  O  O5  1  0.78245058  0.77855443  0.47456403  1
  O  O6  1  0.21754935  0.22144571  0.52543609  1
  O  O7  1  0.28245062  0.72144660  0.52543609  1
  O  O8  1  0.55845061  0.00389465  0.74999950  1
  O  O9  1  0.94154928  0.50389390  0.74999950  1
  O  O10  1  0.21754935  0.22144571  0.97456409  1
  O  O11  1  0.28245062  0.72144660  0.97456409  1
  Pb  Pb12  1  0.99829650  0.00637502  0.24999944  1
  Pb  Pb13  1  0.50170346  0.50637591  0.24999944  1
  Pb  Pb14  1  0.49829647  0.49362422  0.74999950  1
  Pb  Pb15  1  0.00170350  0.99362498  0.74999950  1
  Te  Te16  1  0.49999997  0.00000000  0.00000000  1
  Te  Te17  1  0.00000000  0.49999924  0.00000000  1
  Te  Te18  1  0.49999997  0.00000000  0.50000006  1
  Te  Te19  1  0.00000000  0.49999924  0.50000006  1
