# generated using pymatgen
data_CePdO3
_symmetry_space_group_name_H-M   'P 1'
_cell_length_a   5.58909116
_cell_length_b   5.94849071
_cell_length_c   7.85888866
_cell_angle_alpha   90.00000000
_cell_angle_beta   90.00000000
_cell_angle_gamma   90.00000000
_symmetry_Int_Tables_number   1
_chemical_formula_structural   CePdO3
_chemical_formula_sum   'Ce4 Pd4 O12'
_cell_volume   261.28177406
_cell_formula_units_Z   4
loop_
 _symmetry_equiv_pos_site_id
 _symmetry_equiv_pos_as_xyz
  1  'x, y, z'
loop_
 _atom_site_type_symbol
 _atom_site_label
 _atom_site_symmetry_multiplicity
 _atom_site_fract_x
 _atom_site_fract_y
 _atom_site_fract_z
 _atom_site_occupancy
  Ce  Ce0  1  0.97869043  0.07057925  0.24999972  1
  Ce  Ce1  1  0.52131016  0.57058003  0.24999972  1
  Ce  Ce2  1  0.47868963  0.42941985  0.75000045  1
  Ce  Ce3  1  0.02130937  0.92942063  0.75000045  1
  O  O4  1  0.69496809  0.29945243  0.05108992  1
  O  O5  1  0.80503071  0.79945321  0.05108992  1
  O  O6  1  0.10787264  0.46629643  0.24999972  1
  O  O7  1  0.39212815  0.96629721  0.24999972  1
  O  O8  1  0.69496809  0.29945243  0.44890953  1
  O  O9  1  0.80503071  0.79945321  0.44890953  1
  O  O10  1  0.19496909  0.20054667  0.55109064  1
  O  O11  1  0.30503170  0.70054745  0.55109064  1
  O  O12  1  0.60787164  0.03370267  0.75000045  1
  O  O13  1  0.89212716  0.53370345  0.75000045  1
  O  O14  1  0.19496909  0.20054667  0.94891025  1
  O  O15  1  0.30503170  0.70054745  0.94891025  1
  Pd  Pd16  1  0.50000079  0.00000000  0.00000000  1
  Pd  Pd17  1  0.00000000  0.50000078  0.00000000  1
  Pd  Pd18  1  0.50000079  0.00000000  0.49999945  1
  Pd  Pd19  1  0.00000000  0.50000078  0.49999945  1
