# generated using pymatgen
data_YCoO3
_symmetry_space_group_name_H-M   'P 1'
_cell_length_a   5.23728232
_cell_length_b   5.74594314
_cell_length_c   7.48923591
_cell_angle_alpha   90.64402726
_cell_angle_beta   89.99110148
_cell_angle_gamma   90.09990999
_symmetry_Int_Tables_number   1
_chemical_formula_structural   YCoO3
_chemical_formula_sum   'Y4 Co4 O12'
_cell_volume   225.35994113
_cell_formula_units_Z   4
loop_
 _symmetry_equiv_pos_site_id
 _symmetry_equiv_pos_as_xyz
  1  'x, y, z'
loop_
 _atom_site_type_symbol
 _atom_site_label
 _atom_site_symmetry_multiplicity
 _atom_site_fract_x
 _atom_site_fract_y
 _atom_site_fract_z
 _atom_site_occupancy
  Y  Y0  1  0.02158459  0.91657677  0.74665230  1
  Y  Y1  1  0.47775903  0.41635955  0.74664822  1
  Y  Y2  1  0.52224117  0.58364062  0.25335193  1
  Y  Y3  1  0.97841548  0.08342319  0.25334767  1
  Co  Co4  1  0.50000007  1.00000001  0.50000006  1
  Co  Co5  1  -0.00000004  0.50000003  0.50000005  1
  Co  Co6  1  0.50000001  -0.00000000  0.00000005  1
  Co  Co7  1  1.00000000  0.49999999  0.00000007  1
  O  O8  1  0.80672054  0.81416253  0.05259441  1
  O  O9  1  0.30630280  0.68542598  0.94757521  1
  O  O10  1  0.29894370  0.67988745  0.55456169  1
  O  O11  1  0.60855555  0.03126053  0.74719090  1
  O  O12  1  0.79866830  0.82043689  0.44558190  1
  O  O13  1  0.10888236  0.46853253  0.25339311  1
  O  O14  1  0.20133171  0.17956315  0.55441819  1
  O  O15  1  0.39144454  0.96873943  0.25280924  1
  O  O16  1  0.70105640  0.32011256  0.44543847  1
  O  O17  1  0.69369695  0.31457402  0.05242485  1
  O  O18  1  0.89111750  0.53146744  0.74660699  1
  O  O19  1  0.19327933  0.18583735  0.94740568  1
