# generated using pymatgen
data_TbEuO3
_symmetry_space_group_name_H-M   'P 1'
_cell_length_a   5.90695291
_cell_length_b   6.10022590
_cell_length_c   8.26945614
_cell_angle_alpha   90.00000000
_cell_angle_beta   90.00000000
_cell_angle_gamma   90.00000000
_symmetry_Int_Tables_number   1
_chemical_formula_structural   TbEuO3
_chemical_formula_sum   'Tb4 Eu4 O12'
_cell_volume   297.97949166
_cell_formula_units_Z   4
loop_
 _symmetry_equiv_pos_site_id
 _symmetry_equiv_pos_as_xyz
  1  'x, y, z'
loop_
 _atom_site_type_symbol
 _atom_site_label
 _atom_site_symmetry_multiplicity
 _atom_site_fract_x
 _atom_site_fract_y
 _atom_site_fract_z
 _atom_site_occupancy
  Eu  Eu0  1  0.97398440  0.05518648  0.24999951  1
  Eu  Eu1  1  0.52601401  0.55518764  0.24999951  1
  Eu  Eu2  1  0.47398550  0.44481140  0.74999975  1
  Eu  Eu3  1  0.02601510  0.94481091  0.74999975  1
  O  O4  1  0.70557359  0.29153674  0.07648266  1
  O  O5  1  0.79442651  0.79153626  0.07648266  1
  O  O6  1  0.13914111  0.43196269  0.24999951  1
  O  O7  1  0.36085949  0.93196385  0.24999951  1
  O  O8  1  0.70557359  0.29153674  0.42351636  1
  O  O9  1  0.79442651  0.79153626  0.42351636  1
  O  O10  1  0.20557469  0.20846441  0.57648410  1
  O  O11  1  0.29442591  0.70846393  0.57648410  1
  O  O12  1  0.63914002  0.06803682  0.74999975  1
  O  O13  1  0.86086009  0.56803798  0.74999975  1
  O  O14  1  0.20557469  0.20846441  0.92351660  1
  O  O15  1  0.29442591  0.70846393  0.92351660  1
  Tb  Tb16  1  0.49999891  0.00000000  0.00000000  1
  Tb  Tb17  1  0.00000000  0.49999952  0.00000000  1
  Tb  Tb18  1  0.49999891  0.00000000  0.50000023  1
  Tb  Tb19  1  0.00000000  0.49999952  0.50000023  1
