# generated using pymatgen
data_NpPbO3
_symmetry_space_group_name_H-M   'P 1'
_cell_length_a   6.00620397
_cell_length_b   6.20350004
_cell_length_c   8.62800036
_cell_angle_alpha   90.00000000
_cell_angle_beta   90.00000000
_cell_angle_gamma   90.00000000
_symmetry_Int_Tables_number   1
_chemical_formula_structural   NpPbO3
_chemical_formula_sum   'Np4 Pb4 O12'
_cell_volume   321.47486337
_cell_formula_units_Z   4
loop_
 _symmetry_equiv_pos_site_id
 _symmetry_equiv_pos_as_xyz
  1  'x, y, z'
loop_
 _atom_site_type_symbol
 _atom_site_label
 _atom_site_symmetry_multiplicity
 _atom_site_fract_x
 _atom_site_fract_y
 _atom_site_fract_z
 _atom_site_occupancy
  Np  Np0  1  0.49999967  0.00000000  0.00000000  1
  Np  Np1  1  0.00000000  0.50000000  0.00000000  1
  Np  Np2  1  0.49999967  0.00000000  0.49999998  1
  Np  Np3  1  0.00000000  0.50000000  0.49999998  1
  O  O4  1  0.68781047  0.30678165  0.05401136  1
  O  O5  1  0.81219020  0.80678004  0.05401136  1
  O  O6  1  0.11167286  0.46923188  0.24999999  1
  O  O7  1  0.38832681  0.96923188  0.24999999  1
  O  O8  1  0.68781047  0.30678165  0.44598862  1
  O  O9  1  0.81219020  0.80678004  0.44598862  1
  O  O10  1  0.18781080  0.19321996  0.55401249  1
  O  O11  1  0.31218887  0.69321834  0.55401249  1
  O  O12  1  0.61167420  0.03076811  0.74999997  1
  O  O13  1  0.88832814  0.53076811  0.74999997  1
  O  O14  1  0.18781080  0.19321996  0.94598860  1
  O  O15  1  0.31218887  0.69321834  0.94598860  1
  Pb  Pb16  1  0.99018948  0.03681470  0.24999999  1
  Pb  Pb17  1  0.50981119  0.53681470  0.24999999  1
  Pb  Pb18  1  0.49018981  0.46318530  0.74999997  1
  Pb  Pb19  1  0.00980986  0.96318529  0.74999997  1
