# generated using pymatgen
data_LaIrO3
_symmetry_space_group_name_H-M   'P 1'
_cell_length_a   5.46578131
_cell_length_b   5.89352765
_cell_length_c   7.90819286
_cell_angle_alpha   90.00000000
_cell_angle_beta   90.00000000
_cell_angle_gamma   90.00000000
_symmetry_Int_Tables_number   1
_chemical_formula_structural   LaIrO3
_chemical_formula_sum   'La4 Ir4 O12'
_cell_volume   254.74450713
_cell_formula_units_Z   4
loop_
 _symmetry_equiv_pos_site_id
 _symmetry_equiv_pos_as_xyz
  1  'x, y, z'
loop_
 _atom_site_type_symbol
 _atom_site_label
 _atom_site_symmetry_multiplicity
 _atom_site_fract_x
 _atom_site_fract_y
 _atom_site_fract_z
 _atom_site_occupancy
  Ir  Ir0  1  0.49999988  0.00000000  0.00000000  1
  Ir  Ir1  1  0.00000000  0.49999935  0.00000000  1
  Ir  Ir2  1  0.49999988  0.00000000  0.50000045  1
  Ir  Ir3  1  0.00000000  0.49999935  0.50000045  1
  La  La4  1  0.97583304  0.07420853  0.25000023  1
  La  La5  1  0.52416660  0.57420788  0.25000023  1
  La  La6  1  0.47583316  0.42579252  0.74999941  1
  La  La7  1  0.02416672  0.92579187  0.74999941  1
  O  O8  1  0.68486458  0.30355504  0.05293118  1
  O  O9  1  0.81513506  0.80355439  0.05293118  1
  O  O10  1  0.11121740  0.46784034  0.25000023  1
  O  O11  1  0.38878431  0.96783970  0.25000023  1
  O  O12  1  0.68486458  0.30355504  0.44706927  1
  O  O13  1  0.81513506  0.80355439  0.44706927  1
  O  O14  1  0.18486470  0.19644431  0.55293037  1
  O  O15  1  0.31513518  0.69644536  0.55293037  1
  O  O16  1  0.61121728  0.03216070  0.74999941  1
  O  O17  1  0.88878419  0.53216006  0.74999941  1
  O  O18  1  0.18486470  0.19644431  0.94706972  1
  O  O19  1  0.31513518  0.69644536  0.94706972  1
