# generated using pymatgen
data_BaGaO3
_symmetry_space_group_name_H-M   'P 1'
_cell_length_a   5.68204787
_cell_length_b   5.68204787
_cell_length_c   5.68204818
_cell_angle_alpha   60.05077524
_cell_angle_beta   60.05077524
_cell_angle_gamma   60.05078587
_symmetry_Int_Tables_number   1
_chemical_formula_structural   BaGaO3
_chemical_formula_sum   'Ba2 Ga2 O6'
_cell_volume   129.86712887
_cell_formula_units_Z   2
loop_
 _symmetry_equiv_pos_site_id
 _symmetry_equiv_pos_as_xyz
  1  'x, y, z'
loop_
 _atom_site_type_symbol
 _atom_site_label
 _atom_site_symmetry_multiplicity
 _atom_site_fract_x
 _atom_site_fract_y
 _atom_site_fract_z
 _atom_site_occupancy
  Ba  Ba0  1  0.24999979  0.24999979  0.24999964  1
  Ba  Ba1  1  0.75000008  0.75000008  0.74999963  1
  Ga  Ga2  1  0.00000000  0.00000000  0.00000000  1
  Ga  Ga3  1  0.50000029  0.50000029  0.49999999  1
  O  O4  1  0.75000014  0.25046872  0.24953127  1
  O  O5  1  0.74952971  0.75047231  0.24999901  1
  O  O6  1  0.24952908  0.74999959  0.25047145  1
  O  O7  1  0.75047150  0.25000100  0.74952854  1
  O  O8  1  0.25047088  0.24952828  0.75000097  1
  O  O9  1  0.25000044  0.74953187  0.75046872  1
