# generated using pymatgen
data_CeGeO3
_symmetry_space_group_name_H-M   'P 1'
_cell_length_a   5.57548249
_cell_length_b   5.84847139
_cell_length_c   8.01516775
_cell_angle_alpha   90.00000000
_cell_angle_beta   90.00000000
_cell_angle_gamma   90.00000000
_symmetry_Int_Tables_number   1
_chemical_formula_structural   CeGeO3
_chemical_formula_sum   'Ce4 Ge4 O12'
_cell_volume   261.35898946
_cell_formula_units_Z   4
loop_
 _symmetry_equiv_pos_site_id
 _symmetry_equiv_pos_as_xyz
  1  'x, y, z'
loop_
 _atom_site_type_symbol
 _atom_site_label
 _atom_site_symmetry_multiplicity
 _atom_site_fract_x
 _atom_site_fract_y
 _atom_site_fract_z
 _atom_site_occupancy
  Ce  Ce0  1  0.98411214  0.05983444  0.24999976  1
  Ce  Ce1  1  0.51588898  0.55983517  0.24999976  1
  Ce  Ce2  1  0.48411057  0.44016459  0.75000052  1
  Ce  Ce3  1  0.01588921  0.94016532  0.75000052  1
  Ge  Ge4  1  0.49999978  0.00000000  0.00000000  1
  Ge  Ge5  1  0.00000000  0.49999903  0.00000000  1
  Ge  Ge6  1  0.49999978  0.00000000  0.50000076  1
  Ge  Ge7  1  0.00000000  0.49999903  0.50000076  1
  O  O8  1  0.70223878  0.29744353  0.04986047  1
  O  O9  1  0.79776055  0.79744256  0.04986047  1
  O  O10  1  0.09393088  0.47226699  0.24999976  1
  O  O11  1  0.40607069  0.97226602  0.24999976  1
  O  O12  1  0.70223878  0.29744353  0.45014030  1
  O  O13  1  0.79776055  0.79744256  0.45014030  1
  O  O14  1  0.20223900  0.20255720  0.54986123  1
  O  O15  1  0.29776078  0.70255623  0.54986123  1
  O  O16  1  0.59393066  0.02773374  0.75000052  1
  O  O17  1  0.90607046  0.52773277  0.75000052  1
  O  O18  1  0.20223900  0.20255720  0.95013981  1
  O  O19  1  0.29776078  0.70255623  0.95013981  1
