# generated using pymatgen
data_ZrPdO3
_symmetry_space_group_name_H-M   'P 1'
_cell_length_a   3.93124800
_cell_length_b   3.93124800
_cell_length_c   3.93124800
_cell_angle_alpha   90.00000000
_cell_angle_beta   90.00000000
_cell_angle_gamma   90.00000000
_symmetry_Int_Tables_number   1
_chemical_formula_structural   ZrPdO3
_chemical_formula_sum   'Zr1 Pd1 O3'
_cell_volume   60.75630107
_cell_formula_units_Z   1
loop_
 _symmetry_equiv_pos_site_id
 _symmetry_equiv_pos_as_xyz
  1  'x, y, z'
loop_
 _atom_site_type_symbol
 _atom_site_label
 _atom_site_symmetry_multiplicity
 _atom_site_fract_x
 _atom_site_fract_y
 _atom_site_fract_z
 _atom_site_occupancy
  O  O0  1  0.49999898  0.49999898  0.00000000  1
  O  O1  1  0.49999898  0.00000000  0.49999898  1
  O  O2  1  0.00000000  0.49999898  0.49999898  1
  Pd  Pd3  1  0.49999898  0.49999898  0.49999898  1
  Zr  Zr4  1  0.00000000  0.00000000  0.00000000  1
