# generated using pymatgen
data_MnBiO3
_symmetry_space_group_name_H-M   'P 1'
_cell_length_a   5.62293785
_cell_length_b   7.74381700
_cell_length_c   5.74374687
_cell_angle_alpha   90.00074705
_cell_angle_beta   89.93693099
_cell_angle_gamma   90.00223830
_symmetry_Int_Tables_number   1
_chemical_formula_structural   MnBiO3
_chemical_formula_sum   'Mn4 Bi4 O12'
_cell_volume   250.09982824
_cell_formula_units_Z   4
loop_
 _symmetry_equiv_pos_site_id
 _symmetry_equiv_pos_as_xyz
  1  'x, y, z'
loop_
 _atom_site_type_symbol
 _atom_site_label
 _atom_site_symmetry_multiplicity
 _atom_site_fract_x
 _atom_site_fract_y
 _atom_site_fract_z
 _atom_site_occupancy
  Mn  Mn0  1  0.99977200  0.49999800  0.49965500  1
  Mn  Mn1  1  0.50014500  0.49983300  0.00009200  1
  Mn  Mn2  1  0.49994600  0.99977200  0.00019100  1
  Mn  Mn3  1  0.99996600  0.99999200  0.50000100  1
  Bi  Bi4  1  0.49485400  0.75004000  0.54400500  1
  Bi  Bi5  1  0.00517900  0.75005100  0.04369000  1
  Bi  Bi6  1  0.50511600  0.25003800  0.45626700  1
  Bi  Bi7  1  0.99502100  0.25004500  0.95597700  1
  O  O8  1  0.60323200  0.74988700  0.96577400  1
  O  O9  1  0.89682000  0.75002100  0.46571800  1
  O  O10  1  0.39684700  0.24987900  0.03436800  1
  O  O11  1  0.10319400  0.25002200  0.53425000  1
  O  O12  1  0.32617800  0.95199600  0.28776500  1
  O  O13  1  0.17367200  0.54812300  0.78738500  1
  O  O14  1  0.67383100  0.45202400  0.71241400  1
  O  O15  1  0.82626800  0.04812700  0.21244200  1
  O  O16  1  0.67374100  0.04806700  0.71254900  1
  O  O17  1  0.82617600  0.45199200  0.21225400  1
  O  O18  1  0.32628700  0.54809600  0.28762600  1
  O  O19  1  0.17375400  0.95199700  0.78758000  1
