# generated using pymatgen
data_AcZrO3
_symmetry_space_group_name_H-M   'P 1'
_cell_length_a   5.84005107
_cell_length_b   6.05701732
_cell_length_c   8.34009200
_cell_angle_alpha   90.00000000
_cell_angle_beta   90.00000000
_cell_angle_gamma   90.00000000
_symmetry_Int_Tables_number   1
_chemical_formula_structural   AcZrO3
_chemical_formula_sum   'Ac4 Zr4 O12'
_cell_volume   295.01649667
_cell_formula_units_Z   4
loop_
 _symmetry_equiv_pos_site_id
 _symmetry_equiv_pos_as_xyz
  1  'x, y, z'
loop_
 _atom_site_type_symbol
 _atom_site_label
 _atom_site_symmetry_multiplicity
 _atom_site_fract_x
 _atom_site_fract_y
 _atom_site_fract_z
 _atom_site_occupancy
  Ac  Ac0  1  0.99029785  0.06220884  0.24999964  1
  Ac  Ac1  1  0.50970273  0.56220906  0.24999964  1
  Ac  Ac2  1  0.49029708  0.43779138  0.75000012  1
  Ac  Ac3  1  0.00970368  0.93778996  0.75000012  1
  O  O4  1  0.69777301  0.29562240  0.04612539  1
  O  O5  1  0.80222757  0.79562262  0.04612539  1
  O  O6  1  0.08508316  0.47909224  0.24999964  1
  O  O7  1  0.41491589  0.97909246  0.24999964  1
  O  O8  1  0.69777301  0.29562240  0.45387509  1
  O  O9  1  0.80222757  0.79562262  0.45387509  1
  O  O10  1  0.19777224  0.20437782  0.54612467  1
  O  O11  1  0.30222681  0.70437804  0.54612467  1
  O  O12  1  0.58508392  0.02090798  0.75000012  1
  O  O13  1  0.91491666  0.52090820  0.75000012  1
  O  O14  1  0.19777224  0.20437782  0.95387557  1
  O  O15  1  0.30222681  0.70437804  0.95387557  1
  Zr  Zr16  1  0.49999905  0.00000000  0.00000000  1
  Zr  Zr17  1  0.00000000  0.50000022  0.00000000  1
  Zr  Zr18  1  0.49999905  0.00000000  0.50000048  1
  Zr  Zr19  1  0.00000000  0.50000022  0.50000048  1
