# generated using pymatgen
data_EuTaO3
_symmetry_space_group_name_H-M   'P 1'
_cell_length_a   5.56104335
_cell_length_b   5.64279784
_cell_length_c   7.94750912
_cell_angle_alpha   90.00000000
_cell_angle_beta   90.00000000
_cell_angle_gamma   90.00000000
_symmetry_Int_Tables_number   1
_chemical_formula_structural   EuTaO3
_chemical_formula_sum   'Eu4 Ta4 O12'
_cell_volume   249.39159174
_cell_formula_units_Z   4
loop_
 _symmetry_equiv_pos_site_id
 _symmetry_equiv_pos_as_xyz
  1  'x, y, z'
loop_
 _atom_site_type_symbol
 _atom_site_label
 _atom_site_symmetry_multiplicity
 _atom_site_fract_x
 _atom_site_fract_y
 _atom_site_fract_z
 _atom_site_occupancy
  Eu  Eu0  1  0.99545888  0.03813711  0.25000034  1
  Eu  Eu1  1  0.50454021  0.53813730  0.25000034  1
  Eu  Eu2  1  0.49545918  0.46186308  0.74999977  1
  Eu  Eu3  1  0.00454051  0.96186327  0.74999977  1
  O  O4  1  0.71031635  0.28785366  0.03114183  1
  O  O5  1  0.78968275  0.78785385  0.03114183  1
  O  O6  1  0.06030163  0.48709347  0.25000034  1
  O  O7  1  0.43969807  0.98709189  0.25000034  1
  O  O8  1  0.71031635  0.28785366  0.46885885  1
  O  O9  1  0.78968275  0.78785385  0.46885885  1
  O  O10  1  0.21031665  0.21214476  0.53114126  1
  O  O11  1  0.28968305  0.71214495  0.53114126  1
  O  O12  1  0.56030133  0.01290672  0.74999977  1
  O  O13  1  0.93969956  0.51290691  0.74999977  1
  O  O14  1  0.21031665  0.21214476  0.96885702  1
  O  O15  1  0.28968305  0.71214495  0.96885702  1
  Ta  Ta16  1  0.49999970  0.00000000  0.00000000  1
  Ta  Ta17  1  0.00000000  0.50000019  0.00000000  1
  Ta  Ta18  1  0.49999970  0.00000000  0.50000068  1
  Ta  Ta19  1  0.00000000  0.50000019  0.50000068  1
