# generated using pymatgen
data_GdPdO3
_symmetry_space_group_name_H-M   'P 1'
_cell_length_a   5.42307310
_cell_length_b   5.91064483
_cell_length_c   7.55786281
_cell_angle_alpha   90.00000000
_cell_angle_beta   90.00000000
_cell_angle_gamma   90.00000000
_symmetry_Int_Tables_number   1
_chemical_formula_structural   GdPdO3
_chemical_formula_sum   'Gd4 Pd4 O12'
_cell_volume   242.25866884
_cell_formula_units_Z   4
loop_
 _symmetry_equiv_pos_site_id
 _symmetry_equiv_pos_as_xyz
  1  'x, y, z'
loop_
 _atom_site_type_symbol
 _atom_site_label
 _atom_site_symmetry_multiplicity
 _atom_site_fract_x
 _atom_site_fract_y
 _atom_site_fract_z
 _atom_site_occupancy
  Gd  Gd0  1  0.97143998  0.08417863  0.25000057  1
  Gd  Gd1  1  0.52856009  0.58417822  0.25000057  1
  Gd  Gd2  1  0.47143934  0.41582096  0.75000038  1
  Gd  Gd3  1  0.02856130  0.91582055  0.75000038  1
  O  O4  1  0.68118388  0.31027072  0.05878778  1
  O  O5  1  0.81881618  0.81027031  0.05878778  1
  O  O6  1  0.13628804  0.44606977  0.25000057  1
  O  O7  1  0.36371260  0.94607106  0.25000057  1
  O  O8  1  0.68118388  0.31027072  0.44121203  1
  O  O9  1  0.81881618  0.81027031  0.44121203  1
  O  O10  1  0.18118325  0.18972888  0.55878760  1
  O  O11  1  0.31881554  0.68973016  0.55878760  1
  O  O12  1  0.63628868  0.05392982  0.75000038  1
  O  O13  1  0.86371139  0.55392941  0.75000038  1
  O  O14  1  0.18118325  0.18972888  0.94121184  1
  O  O15  1  0.31881554  0.68973016  0.94121184  1
  Pd  Pd16  1  0.50000064  0.00000000  0.00000000  1
  Pd  Pd17  1  0.00000000  0.49999959  0.00000000  1
  Pd  Pd18  1  0.50000064  0.00000000  0.49999981  1
  Pd  Pd19  1  0.00000000  0.49999959  0.49999981  1
