# generated using pymatgen
data_Ca3GeO
_symmetry_space_group_name_H-M   'P 1'
_cell_length_a   7.15227600
_cell_length_b   10.11390900
_cell_length_c   7.16101200
_cell_angle_alpha   90.00000000
_cell_angle_beta   90.00000000
_cell_angle_gamma   90.00000000
_symmetry_Int_Tables_number   1
_chemical_formula_structural   Ca3GeO
_chemical_formula_sum   'Ca12 Ge4 O4'
_cell_volume   518.00948074
_cell_formula_units_Z   4
loop_
 _symmetry_equiv_pos_site_id
 _symmetry_equiv_pos_as_xyz
  1  'x, y, z'
loop_
 _atom_site_type_symbol
 _atom_site_label
 _atom_site_symmetry_multiplicity
 _atom_site_fract_x
 _atom_site_fract_y
 _atom_site_fract_z
 _atom_site_occupancy
  Ca  Ca0  1  0.77547511  0.03049854  0.72413506  1
  Ca  Ca1  1  0.27547511  0.03049854  0.77586494  1
  Ca  Ca2  1  0.99235292  0.25000000  0.05953739  1
  Ca  Ca3  1  0.49235292  0.25000000  0.44046261  1
  Ca  Ca4  1  0.77547511  0.46950146  0.72413506  1
  Ca  Ca5  1  0.27547511  0.46950146  0.77586494  1
  Ca  Ca6  1  0.72452489  0.53049854  0.22413506  1
  Ca  Ca7  1  0.22452489  0.53049854  0.27586494  1
  Ca  Ca8  1  0.50764708  0.75000000  0.55953739  1
  Ca  Ca9  1  0.00764708  0.75000000  0.94046261  1
  Ca  Ca10  1  0.72452489  0.96950146  0.22413506  1
  Ca  Ca11  1  0.22452489  0.96950146  0.27586494  1
  Ge  Ge12  1  0.51823112  0.25000000  0.99499064  1
  Ge  Ge13  1  0.01823112  0.25000000  0.50500936  1
  Ge  Ge14  1  0.98176888  0.75000000  0.49499064  1
  Ge  Ge15  1  0.48176888  0.75000000  0.00500936  1
  O  O16  1  0.00000000  0.00000000  0.00000000  1
  O  O17  1  0.50000000  0.00000000  0.50000000  1
  O  O18  1  0.00000000  0.50000000  0.00000000  1
  O  O19  1  0.50000000  0.50000000  0.50000000  1
