# generated using pymatgen
data_GdNiO3
_symmetry_space_group_name_H-M   'P 1'
_cell_length_a   3.70919375
_cell_length_b   3.70919375
_cell_length_c   3.71864789
_cell_angle_alpha   90.00000000
_cell_angle_beta   90.00000000
_cell_angle_gamma   90.00000000
_symmetry_Int_Tables_number   1
_chemical_formula_structural   GdNiO3
_chemical_formula_sum   'Gd1 Ni1 O3'
_cell_volume   51.16159763
_cell_formula_units_Z   1
loop_
 _symmetry_equiv_pos_site_id
 _symmetry_equiv_pos_as_xyz
  1  'x, y, z'
loop_
 _atom_site_type_symbol
 _atom_site_label
 _atom_site_symmetry_multiplicity
 _atom_site_fract_x
 _atom_site_fract_y
 _atom_site_fract_z
 _atom_site_occupancy
  Gd  Gd0  1  0.00000000  0.00000000  0.08264025  1
  Ni  Ni1  1  0.50000084  0.50000084  0.58106335  1
  O  O2  1  0.50000084  0.50000084  0.08058305  1
  O  O3  1  0.50000084  0.00000000  0.57785788  1
  O  O4  1  0.00000000  0.50000084  0.57785788  1
