# generated using pymatgen
data_ZrSnO3
_symmetry_space_group_name_H-M   'P 1'
_cell_length_a   5.80690331
_cell_length_b   5.86170089
_cell_length_c   8.23197335
_cell_angle_alpha   90.00000000
_cell_angle_beta   90.00000000
_cell_angle_gamma   90.00000000
_symmetry_Int_Tables_number   1
_chemical_formula_structural   ZrSnO3
_chemical_formula_sum   'Zr4 Sn4 O12'
_cell_volume   280.20262825
_cell_formula_units_Z   4
loop_
 _symmetry_equiv_pos_site_id
 _symmetry_equiv_pos_as_xyz
  1  'x, y, z'
loop_
 _atom_site_type_symbol
 _atom_site_label
 _atom_site_symmetry_multiplicity
 _atom_site_fract_x
 _atom_site_fract_y
 _atom_site_fract_z
 _atom_site_occupancy
  O  O0  1  0.70104319  0.29714925  0.04534757  1
  O  O1  1  0.79895768  0.79714917  0.04534757  1
  O  O2  1  0.08579960  0.49815746  0.24999959  1
  O  O3  1  0.41420011  0.99815738  0.24999959  1
  O  O4  1  0.70104319  0.29714925  0.45465162  1
  O  O5  1  0.79895768  0.79714917  0.45465162  1
  O  O6  1  0.20104347  0.20285068  0.54534798  1
  O  O7  1  0.29895797  0.70285060  0.54534798  1
  O  O8  1  0.58579932  0.00184247  0.75000000  1
  O  O9  1  0.91419983  0.50184239  0.75000000  1
  O  O10  1  0.20104347  0.20285068  0.95465202  1
  O  O11  1  0.29895797  0.70285060  0.95465202  1
  Sn  Sn12  1  0.99060716  0.00291212  0.24999959  1
  Sn  Sn13  1  0.50939371  0.50291205  0.24999959  1
  Sn  Sn14  1  0.49060572  0.49708780  0.75000000  1
  Sn  Sn15  1  0.00939399  0.99708772  0.75000000  1
  Zr  Zr16  1  0.49999971  0.00000000  0.00000000  1
  Zr  Zr17  1  0.00000000  0.49999992  0.00000000  1
  Zr  Zr18  1  0.49999971  0.00000000  0.50000040  1
  Zr  Zr19  1  0.00000000  0.49999992  0.50000040  1
