# generated using pymatgen
data_LiTiO3
_symmetry_space_group_name_H-M   'P 1'
_cell_length_a   5.08025312
_cell_length_b   5.39602681
_cell_length_c   7.03555872
_cell_angle_alpha   90.00000000
_cell_angle_beta   90.00000000
_cell_angle_gamma   90.00000000
_symmetry_Int_Tables_number   1
_chemical_formula_structural   LiTiO3
_chemical_formula_sum   'Li4 Ti4 O12'
_cell_volume   192.86705199
_cell_formula_units_Z   4
loop_
 _symmetry_equiv_pos_site_id
 _symmetry_equiv_pos_as_xyz
  1  'x, y, z'
loop_
 _atom_site_type_symbol
 _atom_site_label
 _atom_site_symmetry_multiplicity
 _atom_site_fract_x
 _atom_site_fract_y
 _atom_site_fract_z
 _atom_site_occupancy
  Li  Li0  1  0.97566005  0.05853381  0.25000005  1
  Li  Li1  1  0.52434002  0.55853503  0.25000005  1
  Li  Li2  1  0.47565937  0.44146556  0.75000014  1
  Li  Li3  1  0.02433934  0.94146678  0.75000014  1
  O  O4  1  0.70258901  0.29095667  0.08249380  1
  O  O5  1  0.79741106  0.79095604  0.08249380  1
  O  O6  1  0.14945121  0.45977348  0.25000005  1
  O  O7  1  0.35054946  0.95977470  0.25000005  1
  O  O8  1  0.70258901  0.29095667  0.41750629  1
  O  O9  1  0.79741106  0.79095604  0.41750629  1
  O  O10  1  0.20259030  0.20904455  0.58249389  1
  O  O11  1  0.29741038  0.70904392  0.58249389  1
  O  O12  1  0.64945189  0.04022589  0.75000014  1
  O  O13  1  0.85054817  0.54022526  0.75000014  1
  O  O14  1  0.20259030  0.20904455  0.91750638  1
  O  O15  1  0.29741038  0.70904392  0.91750638  1
  Ti  Ti16  1  0.50000068  0.00000000  0.00000000  1
  Ti  Ti17  1  0.00000000  0.49999937  0.00000000  1
  Ti  Ti18  1  0.50000068  0.00000000  0.50000009  1
  Ti  Ti19  1  0.00000000  0.49999937  0.50000009  1
