# generated using pymatgen
data_RbTiO3
_symmetry_space_group_name_H-M   'P 1'
_cell_length_a   5.65078461
_cell_length_b   5.64892796
_cell_length_c   7.98979204
_cell_angle_alpha   90.00000000
_cell_angle_beta   90.00000000
_cell_angle_gamma   90.00011454
_symmetry_Int_Tables_number   1
_chemical_formula_structural   RbTiO3
_chemical_formula_sum   'Rb4 Ti4 O12'
_cell_volume   255.04115465
_cell_formula_units_Z   4
loop_
 _symmetry_equiv_pos_site_id
 _symmetry_equiv_pos_as_xyz
  1  'x, y, z'
loop_
 _atom_site_type_symbol
 _atom_site_label
 _atom_site_symmetry_multiplicity
 _atom_site_fract_x
 _atom_site_fract_y
 _atom_site_fract_z
 _atom_site_occupancy
  O  O0  1  0.25005756  0.25014506  0.00020526  1
  O  O1  1  0.24992710  0.75013019  0.00020526  1
  O  O2  1  0.99966876  0.49970997  0.25000025  1
  O  O3  1  0.50034037  0.99971231  0.25000025  1
  O  O4  1  0.25005756  0.25014506  0.49979524  1
  O  O5  1  0.24992710  0.75013019  0.49979524  1
  O  O6  1  0.75007308  0.24987117  0.50020451  1
  O  O7  1  0.74994085  0.74985630  0.50020451  1
  O  O8  1  0.49965982  0.00028728  0.74999950  1
  O  O9  1  0.00033143  0.50028785  0.74999950  1
  O  O10  1  0.75007308  0.24987117  0.99979573  1
  O  O11  1  0.74994085  0.74985630  0.99979573  1
  Rb  Rb12  1  0.00000000  0.00000000  0.25000025  1
  Rb  Rb13  1  0.50006380  0.50002989  0.25000025  1
  Rb  Rb14  1  0.49993638  0.49997147  0.74999950  1
  Rb  Rb15  1  0.00000000  0.00000000  0.74999950  1
  Ti  Ti16  1  0.49999959  0.00000000  0.00000000  1
  Ti  Ti17  1  0.00000000  0.50000107  0.00000000  1
  Ti  Ti18  1  0.49999959  0.00000000  0.50000050  1
  Ti  Ti19  1  0.00000000  0.50000107  0.50000050  1
