# generated using pymatgen
data_CaPtO3
_symmetry_space_group_name_H-M   'P 1'
_cell_length_a   5.34511667
_cell_length_b   5.69232651
_cell_length_c   7.69980356
_cell_angle_alpha   90.00000000
_cell_angle_beta   90.00000000
_cell_angle_gamma   90.00000000
_symmetry_Int_Tables_number   1
_chemical_formula_structural   CaPtO3
_chemical_formula_sum   'Ca4 Pt4 O12'
_cell_volume   234.27537281
_cell_formula_units_Z   4
loop_
 _symmetry_equiv_pos_site_id
 _symmetry_equiv_pos_as_xyz
  1  'x, y, z'
loop_
 _atom_site_type_symbol
 _atom_site_label
 _atom_site_symmetry_multiplicity
 _atom_site_fract_x
 _atom_site_fract_y
 _atom_site_fract_z
 _atom_site_occupancy
  Ca  Ca0  1  0.97609095  0.07240098  0.24999988  1
  Ca  Ca1  1  0.52390624  0.57240041  0.24999988  1
  Ca  Ca2  1  0.47609251  0.42760021  0.74999965  1
  Ca  Ca3  1  0.02390780  0.92759788  0.74999965  1
  O  O4  1  0.68547428  0.30539359  0.05916774  1
  O  O5  1  0.81452478  0.80539126  0.05916774  1
  O  O6  1  0.12078876  0.45359837  0.24999988  1
  O  O7  1  0.37921343  0.95359955  0.24999988  1
  O  O8  1  0.68547428  0.30539359  0.44083073  1
  O  O9  1  0.81452478  0.80539126  0.44083073  1
  O  O10  1  0.18547584  0.19460760  0.55916751  1
  O  O11  1  0.31452447  0.69461054  0.55916751  1
  O  O12  1  0.62078720  0.04640106  0.74999965  1
  O  O13  1  0.87920999  0.54640225  0.74999965  1
  O  O14  1  0.18547584  0.19460760  0.94083309  1
  O  O15  1  0.31452447  0.69461054  0.94083309  1
  Pt  Pt16  1  0.50000218  0.00000000  0.00000000  1
  Pt  Pt17  1  0.00000000  0.49999943  0.00000000  1
  Pt  Pt18  1  0.50000218  0.00000000  0.49999977  1
  Pt  Pt19  1  0.00000000  0.49999943  0.49999977  1
