# generated using pymatgen
data_BaNbS3
_symmetry_space_group_name_H-M   'P 1'
_cell_length_a   6.92008644
_cell_length_b   6.92008644
_cell_length_c   6.92008549
_cell_angle_alpha   119.99999542
_cell_angle_beta   119.99999542
_cell_angle_gamma   59.99999084
_symmetry_Int_Tables_number   1
_chemical_formula_structural   BaNbS3
_chemical_formula_sum   'Ba2 Nb2 S6'
_cell_volume   234.32547215
_cell_formula_units_Z   2
loop_
 _symmetry_equiv_pos_site_id
 _symmetry_equiv_pos_as_xyz
  1  'x, y, z'
loop_
 _atom_site_type_symbol
 _atom_site_label
 _atom_site_symmetry_multiplicity
 _atom_site_fract_x
 _atom_site_fract_y
 _atom_site_fract_z
 _atom_site_occupancy
  Ba  Ba0  1  0.75000098  0.75000098  0.24999954  1
  Ba  Ba1  1  0.24999996  0.24999996  0.74999812  1
  Nb  Nb2  1  0.00000000  0.00000000  0.00000000  1
  Nb  Nb3  1  0.49999993  0.49999993  0.49999993  1
  S  S4  1  0.25001529  0.25001529  0.25001529  1
  S  S5  1  0.25001602  0.74998383  0.74998383  1
  S  S6  1  0.74998383  0.25001602  0.74998383  1
  S  S7  1  0.25001570  0.74998430  0.25001570  1
  S  S8  1  0.74998430  0.25001570  0.25001570  1
  S  S9  1  0.74998558  0.74998558  0.74998558  1
