# generated using pymatgen
data_ZrAgO3
_symmetry_space_group_name_H-M   'P 1'
_cell_length_a   5.39758496
_cell_length_b   5.78309281
_cell_length_c   8.05225941
_cell_angle_alpha   90.00000000
_cell_angle_beta   90.00000000
_cell_angle_gamma   90.00000000
_symmetry_Int_Tables_number   1
_chemical_formula_structural   ZrAgO3
_chemical_formula_sum   'Zr4 Ag4 O12'
_cell_volume   251.34914171
_cell_formula_units_Z   4
loop_
 _symmetry_equiv_pos_site_id
 _symmetry_equiv_pos_as_xyz
  1  'x, y, z'
loop_
 _atom_site_type_symbol
 _atom_site_label
 _atom_site_symmetry_multiplicity
 _atom_site_fract_x
 _atom_site_fract_y
 _atom_site_fract_z
 _atom_site_occupancy
  Ag  Ag0  1  0.98117585  0.07967882  0.24999940  1
  Ag  Ag1  1  0.51882277  0.57968117  0.24999940  1
  Ag  Ag2  1  0.48117816  0.42032007  0.74999943  1
  Ag  Ag3  1  0.01882323  0.92031897  0.74999943  1
  O  O4  1  0.69590938  0.29695702  0.07067706  1
  O  O5  1  0.80409109  0.79695591  0.07067706  1
  O  O6  1  0.13807101  0.43964710  0.24999940  1
  O  O7  1  0.36192853  0.93964773  0.24999940  1
  O  O8  1  0.69590938  0.29695702  0.42932298  1
  O  O9  1  0.80409109  0.79695591  0.42932298  1
  O  O10  1  0.19590799  0.20304187  0.57067709  1
  O  O11  1  0.30409155  0.70304422  0.57067709  1
  O  O12  1  0.63807240  0.06035179  0.74999943  1
  O  O13  1  0.86192807  0.56035241  0.74999943  1
  O  O14  1  0.19590799  0.20304187  0.92932302  1
  O  O15  1  0.30409155  0.70304422  0.92932302  1
  Zr  Zr16  1  0.50000139  0.00000000  0.00000000  1
  Zr  Zr17  1  0.00000000  0.49999889  0.00000000  1
  Zr  Zr18  1  0.50000139  0.00000000  0.50000004  1
  Zr  Zr19  1  0.00000000  0.49999889  0.50000004  1
