# generated using pymatgen
data_GdZnO3
_symmetry_space_group_name_H-M   'P 1'
_cell_length_a   5.27403023
_cell_length_b   5.79218023
_cell_length_c   7.52023754
_cell_angle_alpha   90.00000000
_cell_angle_beta   90.00000000
_cell_angle_gamma   90.00000000
_symmetry_Int_Tables_number   1
_chemical_formula_structural   GdZnO3
_chemical_formula_sum   'Gd4 Zn4 O12'
_cell_volume   229.72922138
_cell_formula_units_Z   4
loop_
 _symmetry_equiv_pos_site_id
 _symmetry_equiv_pos_as_xyz
  1  'x, y, z'
loop_
 _atom_site_type_symbol
 _atom_site_label
 _atom_site_symmetry_multiplicity
 _atom_site_fract_x
 _atom_site_fract_y
 _atom_site_fract_z
 _atom_site_occupancy
  Gd  Gd0  1  0.97715215  0.08380955  0.25000008  1
  Gd  Gd1  1  0.52284494  0.58380780  0.25000008  1
  Gd  Gd2  1  0.47715312  0.41619216  0.75000025  1
  Gd  Gd3  1  0.02284780  0.91619041  0.75000025  1
  O  O4  1  0.69534869  0.31471914  0.05288929  1
  O  O5  1  0.80465219  0.81472085  0.05288929  1
  O  O6  1  0.10931109  0.46822438  0.25000008  1
  O  O7  1  0.39068983  0.96822609  0.25000008  1
  O  O8  1  0.69534869  0.31471914  0.44711088  1
  O  O9  1  0.80465219  0.81472085  0.44711088  1
  O  O10  1  0.19534776  0.18527911  0.55288945  1
  O  O11  1  0.30465316  0.68528082  0.55288945  1
  O  O12  1  0.60931012  0.03177387  0.75000025  1
  O  O13  1  0.89068886  0.53177558  0.75000025  1
  O  O14  1  0.19534776  0.18527911  0.94711104  1
  O  O15  1  0.30465316  0.68528082  0.94711104  1
  Zn  Zn16  1  0.50000093  0.00000000  0.00000000  1
  Zn  Zn17  1  0.00000000  0.49999998  0.00000000  1
  Zn  Zn18  1  0.50000093  0.00000000  0.50000016  1
  Zn  Zn19  1  0.00000000  0.49999998  0.50000016  1
