# generated using pymatgen
data_NaMnO3
_symmetry_space_group_name_H-M   'P 1'
_cell_length_a   5.22896374
_cell_length_b   5.25953197
_cell_length_c   7.38150636
_cell_angle_alpha   90.00000000
_cell_angle_beta   90.00000000
_cell_angle_gamma   90.00000000
_symmetry_Int_Tables_number   1
_chemical_formula_structural   NaMnO3
_chemical_formula_sum   'Na4 Mn4 O12'
_cell_volume   203.00546417
_cell_formula_units_Z   4
loop_
 _symmetry_equiv_pos_site_id
 _symmetry_equiv_pos_as_xyz
  1  'x, y, z'
loop_
 _atom_site_type_symbol
 _atom_site_label
 _atom_site_symmetry_multiplicity
 _atom_site_fract_x
 _atom_site_fract_y
 _atom_site_fract_z
 _atom_site_occupancy
  Mn  Mn0  1  0.50000155  0.00000000  0.00000000  1
  Mn  Mn1  1  0.00000000  0.50000076  0.00000000  1
  Mn  Mn2  1  0.50000155  0.00000000  0.50000092  1
  Mn  Mn3  1  0.00000000  0.50000076  0.50000092  1
  Na  Na4  1  0.99128437  0.03584730  0.24999911  1
  Na  Na5  1  0.50871647  0.53584616  0.24999911  1
  Na  Na6  1  0.49128281  0.46415347  0.75000003  1
  Na  Na7  1  0.00871492  0.96415613  0.75000003  1
  O  O8  1  0.70735430  0.29119701  0.04222851  1
  O  O9  1  0.79264462  0.79119588  0.04222851  1
  O  O10  1  0.08323829  0.48476557  0.24999911  1
  O  O11  1  0.41675944  0.98476443  0.24999911  1
  O  O12  1  0.70735430  0.29119701  0.45777106  1
  O  O13  1  0.79264462  0.79119588  0.45777106  1
  O  O14  1  0.20735466  0.20880375  0.54222808  1
  O  O15  1  0.29264498  0.70880451  0.54222808  1
  O  O16  1  0.58323984  0.01523520  0.75000003  1
  O  O17  1  0.91676099  0.51523596  0.75000003  1
  O  O18  1  0.20735466  0.20880375  0.95777198  1
  O  O19  1  0.29264498  0.70880451  0.95777198  1
