# generated using pymatgen
data_NpVO3
_symmetry_space_group_name_H-M   'P 1'
_cell_length_a   5.46152976
_cell_length_b   5.70714391
_cell_length_c   7.78087530
_cell_angle_alpha   90.00000000
_cell_angle_beta   90.00000000
_cell_angle_gamma   90.00000000
_symmetry_Int_Tables_number   1
_chemical_formula_structural   NpVO3
_chemical_formula_sum   'Np4 V4 O12'
_cell_volume   242.52783130
_cell_formula_units_Z   4
loop_
 _symmetry_equiv_pos_site_id
 _symmetry_equiv_pos_as_xyz
  1  'x, y, z'
loop_
 _atom_site_type_symbol
 _atom_site_label
 _atom_site_symmetry_multiplicity
 _atom_site_fract_x
 _atom_site_fract_y
 _atom_site_fract_z
 _atom_site_occupancy
  Np  Np0  1  0.98798510  0.05429336  0.25000015  1
  Np  Np1  1  0.51201589  0.55429477  0.25000015  1
  Np  Np2  1  0.48798416  0.44570455  0.75000045  1
  Np  Np3  1  0.01201495  0.94570596  0.75000045  1
  O  O4  1  0.70284704  0.30435013  0.04229730  1
  O  O5  1  0.79715395  0.80434979  0.04229730  1
  O  O6  1  0.08144421  0.48060467  0.25000015  1
  O  O7  1  0.41855489  0.98060608  0.25000015  1
  O  O8  1  0.70284704  0.30435013  0.45770300  1
  O  O9  1  0.79715395  0.80434979  0.45770300  1
  O  O10  1  0.20284793  0.19564953  0.54229631  1
  O  O11  1  0.29715484  0.69565094  0.54229631  1
  O  O12  1  0.58144149  0.01939499  0.75000045  1
  O  O13  1  0.91855583  0.51939640  0.75000045  1
  O  O14  1  0.20284793  0.19564953  0.95770331  1
  O  O15  1  0.29715484  0.69565094  0.95770331  1
  V  V16  1  0.49999911  0.00000000  0.00000000  1
  V  V17  1  0.00000000  0.50000141  0.00000000  1
  V  V18  1  0.49999911  0.00000000  0.49999902  1
  V  V19  1  0.00000000  0.50000141  0.49999902  1
