# generated using pymatgen
data_LaNbO3
_symmetry_space_group_name_H-M   'P 1'
_cell_length_a   5.61028128
_cell_length_b   5.96303741
_cell_length_c   8.01833974
_cell_angle_alpha   90.00000000
_cell_angle_beta   90.00000000
_cell_angle_gamma   90.00000000
_symmetry_Int_Tables_number   1
_chemical_formula_structural   LaNbO3
_chemical_formula_sum   'La4 Nb4 O12'
_cell_volume   268.24808080
_cell_formula_units_Z   4
loop_
 _symmetry_equiv_pos_site_id
 _symmetry_equiv_pos_as_xyz
  1  'x, y, z'
loop_
 _atom_site_type_symbol
 _atom_site_label
 _atom_site_symmetry_multiplicity
 _atom_site_fract_x
 _atom_site_fract_y
 _atom_site_fract_z
 _atom_site_occupancy
  La  La0  1  0.98003286  0.07341057  0.24999938  1
  La  La1  1  0.51996680  0.57341079  0.24999938  1
  La  La2  1  0.48003297  0.42658964  0.74999940  1
  La  La3  1  0.01996691  0.92658986  0.74999940  1
  Nb  Nb4  1  0.49999989  0.00000000  0.00000000  1
  Nb  Nb5  1  0.00000000  0.50000022  0.00000000  1
  Nb  Nb6  1  0.49999989  0.00000000  0.50000002  1
  Nb  Nb7  1  0.00000000  0.50000022  0.50000002  1
  O  O8  1  0.69619147  0.29329348  0.04460026  1
  O  O9  1  0.80380818  0.79329370  0.04460026  1
  O  O10  1  0.10593765  0.47322024  0.24999938  1
  O  O11  1  0.39406224  0.97322046  0.24999938  1
  O  O12  1  0.69619147  0.29329348  0.45539976  1
  O  O13  1  0.80380818  0.79329370  0.45539976  1
  O  O14  1  0.19619159  0.20670674  0.54460027  1
  O  O15  1  0.30380830  0.70670695  0.54460027  1
  O  O16  1  0.60593753  0.02677998  0.74999940  1
  O  O17  1  0.89406212  0.52678019  0.74999940  1
  O  O18  1  0.19619159  0.20670674  0.95539978  1
  O  O19  1  0.30380830  0.70670695  0.95539978  1
