# generated using pymatgen
data_EuDyO3
_symmetry_space_group_name_H-M   'P 1'
_cell_length_a   5.86610428
_cell_length_b   6.06423512
_cell_length_c   8.27806564
_cell_angle_alpha   90.00000000
_cell_angle_beta   90.00000000
_cell_angle_gamma   90.00000000
_symmetry_Int_Tables_number   1
_chemical_formula_structural   EuDyO3
_chemical_formula_sum   'Eu4 Dy4 O12'
_cell_volume   294.47923479
_cell_formula_units_Z   4
loop_
 _symmetry_equiv_pos_site_id
 _symmetry_equiv_pos_as_xyz
  1  'x, y, z'
loop_
 _atom_site_type_symbol
 _atom_site_label
 _atom_site_symmetry_multiplicity
 _atom_site_fract_x
 _atom_site_fract_y
 _atom_site_fract_z
 _atom_site_occupancy
  Dy  Dy0  1  0.50000134  0.00000000  0.00000000  1
  Dy  Dy1  1  0.00000000  0.49999875  0.00000000  1
  Dy  Dy2  1  0.50000134  0.00000000  0.49999966  1
  Dy  Dy3  1  0.00000000  0.49999875  0.49999966  1
  Eu  Eu4  1  0.97517530  0.05669635  0.25000043  1
  Eu  Eu5  1  0.52482531  0.55669840  0.25000043  1
  Eu  Eu6  1  0.47517566  0.44330240  0.75000009  1
  Eu  Eu7  1  0.02482568  0.94330281  0.75000009  1
  O  O8  1  0.70281396  0.29440481  0.07322967  1
  O  O9  1  0.79718665  0.79440686  0.07322967  1
  O  O10  1  0.13323152  0.43691578  0.25000043  1
  O  O11  1  0.36676811  0.93691618  0.25000043  1
  O  O12  1  0.70281396  0.29440481  0.42676999  1
  O  O13  1  0.79718665  0.79440686  0.42676999  1
  O  O14  1  0.20281603  0.20559394  0.57323054  1
  O  O15  1  0.29718531  0.70559434  0.57323054  1
  O  O16  1  0.63323286  0.06308463  0.75000009  1
  O  O17  1  0.86676775  0.56308338  0.75000009  1
  O  O18  1  0.20281603  0.20559394  0.92676965  1
  O  O19  1  0.29718531  0.70559434  0.92676965  1
