# generated using pymatgen
data_ReAgO3
_symmetry_space_group_name_H-M   'P 1'
_cell_length_a   5.42161939
_cell_length_b   5.49933746
_cell_length_c   7.71715999
_cell_angle_alpha   90.00000000
_cell_angle_beta   90.00000000
_cell_angle_gamma   90.00000000
_symmetry_Int_Tables_number   1
_chemical_formula_structural   ReAgO3
_chemical_formula_sum   'Re4 Ag4 O12'
_cell_volume   230.08955288
_cell_formula_units_Z   4
loop_
 _symmetry_equiv_pos_site_id
 _symmetry_equiv_pos_as_xyz
  1  'x, y, z'
loop_
 _atom_site_type_symbol
 _atom_site_label
 _atom_site_symmetry_multiplicity
 _atom_site_fract_x
 _atom_site_fract_y
 _atom_site_fract_z
 _atom_site_occupancy
  Ag  Ag0  1  0.99840096  0.00625712  0.25000000  1
  Ag  Ag1  1  0.50159921  0.50625735  0.25000000  1
  Ag  Ag2  1  0.49840090  0.49374130  0.75000000  1
  Ag  Ag3  1  0.00159915  0.99374153  0.75000000  1
  O  O4  1  0.72709272  0.27225098  0.02449217  1
  O  O5  1  0.77290745  0.77225121  0.02449217  1
  O  O6  1  0.04891527  0.49541786  0.25000000  1
  O  O7  1  0.45108478  0.99541627  0.25000000  1
  O  O8  1  0.72709272  0.27225098  0.47550653  1
  O  O9  1  0.77290745  0.77225121  0.47550653  1
  O  O10  1  0.22709267  0.22775107  0.52449347  1
  O  O11  1  0.27290739  0.72774948  0.52449347  1
  O  O12  1  0.54891533  0.00458419  0.75000000  1
  O  O13  1  0.95108484  0.50458260  0.75000000  1
  O  O14  1  0.22709267  0.22775107  0.97550654  1
  O  O15  1  0.27290739  0.72774948  0.97550654  1
  Re  Re16  1  0.50000006  0.00000000  0.00000000  1
  Re  Re17  1  0.00000000  0.50000023  0.00000000  1
  Re  Re18  1  0.50000006  0.00000000  0.50000000  1
  Re  Re19  1  0.00000000  0.50000023  0.50000000  1
