# generated using pymatgen
data_TcAuO3
_symmetry_space_group_name_H-M   'P 1'
_cell_length_a   3.87262452
_cell_length_b   3.87262452
_cell_length_c   3.88976695
_cell_angle_alpha   90.00000000
_cell_angle_beta   90.00000000
_cell_angle_gamma   90.00000000
_symmetry_Int_Tables_number   1
_chemical_formula_structural   TcAuO3
_chemical_formula_sum   'Tc1 Au1 O3'
_cell_volume   58.33569339
_cell_formula_units_Z   1
loop_
 _symmetry_equiv_pos_site_id
 _symmetry_equiv_pos_as_xyz
  1  'x, y, z'
loop_
 _atom_site_type_symbol
 _atom_site_label
 _atom_site_symmetry_multiplicity
 _atom_site_fract_x
 _atom_site_fract_y
 _atom_site_fract_z
 _atom_site_occupancy
  Au  Au0  1  0.00000000  0.00000000  0.07967058  1
  O  O1  1  0.49999942  0.49999942  0.08019761  1
  O  O2  1  0.49999942  0.00000000  0.58002704  1
  O  O3  1  0.00000000  0.49999942  0.58002704  1
  Tc  Tc4  1  0.49999942  0.49999942  0.58007588  1
