# generated using pymatgen
data_YTlO3
_symmetry_space_group_name_H-M   'P 1'
_cell_length_a   4.14921705
_cell_length_b   4.14921705
_cell_length_c   4.73883916
_cell_angle_alpha   90.00002620
_cell_angle_beta   90.00002620
_cell_angle_gamma   90.00000000
_symmetry_Int_Tables_number   1
_chemical_formula_structural   YTlO3
_chemical_formula_sum   'Y1 Tl1 O3'
_cell_volume   81.58386507
_cell_formula_units_Z   1
loop_
 _symmetry_equiv_pos_site_id
 _symmetry_equiv_pos_as_xyz
  1  'x, y, z'
loop_
 _atom_site_type_symbol
 _atom_site_label
 _atom_site_symmetry_multiplicity
 _atom_site_fract_x
 _atom_site_fract_y
 _atom_site_fract_z
 _atom_site_occupancy
  O  O0  1  0.50000037  0.50000037  0.07933610  1
  O  O1  1  0.50000052  0.00000000  0.68168393  1
  O  O2  1  0.00000000  0.50000052  0.68168393  1
  Tl  Tl3  1  0.00000000  0.00000000  0.92180592  1
  Y  Y4  1  0.50000049  0.50000049  0.53549001  1
