# generated using pymatgen
data_YTlO3
_symmetry_space_group_name_H-M   'P 1'
_cell_length_a   5.57618489
_cell_length_b   5.92986750
_cell_length_c   8.54866708
_cell_angle_alpha   90.00000000
_cell_angle_beta   90.00000000
_cell_angle_gamma   90.00000000
_symmetry_Int_Tables_number   1
_chemical_formula_structural   YTlO3
_chemical_formula_sum   'Y4 Tl4 O12'
_cell_volume   282.67054648
_cell_formula_units_Z   4
loop_
 _symmetry_equiv_pos_site_id
 _symmetry_equiv_pos_as_xyz
  1  'x, y, z'
loop_
 _atom_site_type_symbol
 _atom_site_label
 _atom_site_symmetry_multiplicity
 _atom_site_fract_x
 _atom_site_fract_y
 _atom_site_fract_z
 _atom_site_occupancy
  O  O0  1  0.68901589  0.31195975  0.08652694  1
  O  O1  1  0.81098459  0.81195912  0.08652694  1
  O  O2  1  0.16449419  0.41169217  0.24999921  1
  O  O3  1  0.33550537  0.91169153  0.24999921  1
  O  O4  1  0.68901589  0.31195975  0.41347382  1
  O  O5  1  0.81098459  0.81195912  0.41347382  1
  O  O6  1  0.18901454  0.18804130  0.58652653  1
  O  O7  1  0.31098503  0.68804236  0.58652653  1
  O  O8  1  0.66449554  0.08830889  0.74999996  1
  O  O9  1  0.83550673  0.58830825  0.74999996  1
  O  O10  1  0.18901454  0.18804130  0.91347223  1
  O  O11  1  0.31098503  0.68804236  0.91347223  1
  Tl  Tl12  1  0.50000135  0.00000000  0.00000000  1
  Tl  Tl13  1  0.00000000  0.50000105  0.00000000  1
  Tl  Tl14  1  0.50000135  0.00000000  0.50000076  1
  Tl  Tl15  1  0.00000000  0.50000105  0.50000076  1
  Y  Y16  1  0.97314384  0.06842480  0.24999921  1
  Y  Y17  1  0.52685663  0.56842417  0.24999921  1
  Y  Y18  1  0.47314249  0.43157457  0.74999996  1
  Y  Y19  1  0.02685528  0.93157562  0.74999996  1
