# generated using pymatgen
data_TaCrO3
_symmetry_space_group_name_H-M   'P 1'
_cell_length_a   5.39773725
_cell_length_b   5.50104442
_cell_length_c   7.73216064
_cell_angle_alpha   90.00000000
_cell_angle_beta   90.00000000
_cell_angle_gamma   90.00000000
_symmetry_Int_Tables_number   1
_chemical_formula_structural   TaCrO3
_chemical_formula_sum   'Ta4 Cr4 O12'
_cell_volume   229.59253315
_cell_formula_units_Z   4
loop_
 _symmetry_equiv_pos_site_id
 _symmetry_equiv_pos_as_xyz
  1  'x, y, z'
loop_
 _atom_site_type_symbol
 _atom_site_label
 _atom_site_symmetry_multiplicity
 _atom_site_fract_x
 _atom_site_fract_y
 _atom_site_fract_z
 _atom_site_occupancy
  Cr  Cr0  1  0.97967718  0.04316998  0.24999998  1
  Cr  Cr1  1  0.52032173  0.54316958  0.24999998  1
  Cr  Cr2  1  0.47967507  0.45682961  0.74999994  1
  Cr  Cr3  1  0.02032333  0.95682921  0.74999994  1
  O  O4  1  0.68792900  0.30821602  0.04844571  1
  O  O5  1  0.81206991  0.80821743  0.04844571  1
  O  O6  1  0.09675721  0.47613504  0.24999998  1
  O  O7  1  0.40324304  0.97613282  0.24999998  1
  O  O8  1  0.68792900  0.30821602  0.45155425  1
  O  O9  1  0.81206991  0.80821743  0.45155425  1
  O  O10  1  0.18793245  0.19178358  0.54844567  1
  O  O11  1  0.31206965  0.69178318  0.54844567  1
  O  O12  1  0.59675747  0.02386456  0.74999994  1
  O  O13  1  0.90324145  0.52386598  0.74999994  1
  O  O14  1  0.18793245  0.19178358  0.95155421  1
  O  O15  1  0.31206965  0.69178318  0.95155421  1
  Ta  Ta16  1  0.50000026  0.00000000  0.00000000  1
  Ta  Ta17  1  0.00000000  0.49999960  0.00000000  1
  Ta  Ta18  1  0.50000026  0.00000000  0.49999996  1
  Ta  Ta19  1  0.00000000  0.49999960  0.49999996  1
