# generated using pymatgen
data_YbRuO3
_symmetry_space_group_name_H-M   'P 1'
_cell_length_a   3.88271401
_cell_length_b   3.88271401
_cell_length_c   3.92654846
_cell_angle_alpha   90.00000000
_cell_angle_beta   90.00000000
_cell_angle_gamma   90.00000000
_symmetry_Int_Tables_number   1
_chemical_formula_structural   YbRuO3
_chemical_formula_sum   'Yb1 Ru1 O3'
_cell_volume   59.19455596
_cell_formula_units_Z   1
loop_
 _symmetry_equiv_pos_site_id
 _symmetry_equiv_pos_as_xyz
  1  'x, y, z'
loop_
 _atom_site_type_symbol
 _atom_site_label
 _atom_site_symmetry_multiplicity
 _atom_site_fract_x
 _atom_site_fract_y
 _atom_site_fract_z
 _atom_site_occupancy
  O  O0  1  0.49999820  0.49999820  0.08641686  1
  O  O1  1  0.49999820  0.00000000  0.62555194  1
  O  O2  1  0.00000000  0.49999820  0.62555194  1
  Ru  Ru3  1  0.49999820  0.49999820  0.57588236  1
  Yb  Yb4  1  0.00000000  0.00000000  0.98659676  1
