# generated using pymatgen
data_YbRuO3
_symmetry_space_group_name_H-M   'P 1'
_cell_length_a   5.23241694
_cell_length_b   5.58557353
_cell_length_c   7.56861069
_cell_angle_alpha   90.00000000
_cell_angle_beta   90.00000000
_cell_angle_gamma   90.00000000
_symmetry_Int_Tables_number   1
_chemical_formula_structural   YbRuO3
_chemical_formula_sum   'Yb4 Ru4 O12'
_cell_volume   221.20059122
_cell_formula_units_Z   4
loop_
 _symmetry_equiv_pos_site_id
 _symmetry_equiv_pos_as_xyz
  1  'x, y, z'
loop_
 _atom_site_type_symbol
 _atom_site_label
 _atom_site_symmetry_multiplicity
 _atom_site_fract_x
 _atom_site_fract_y
 _atom_site_fract_z
 _atom_site_occupancy
  O  O0  1  0.68803003  0.30297157  0.05322906  1
  O  O1  1  0.81197084  0.80297394  0.05322906  1
  O  O2  1  0.10993390  0.46771383  0.24999965  1
  O  O3  1  0.39006639  0.96771262  0.24999965  1
  O  O4  1  0.68803003  0.30297157  0.44677024  1
  O  O5  1  0.81197084  0.80297394  0.44677024  1
  O  O6  1  0.18802974  0.19702722  0.55322967  1
  O  O7  1  0.31196864  0.69702600  0.55322967  1
  O  O8  1  0.60993419  0.03228675  0.75000026  1
  O  O9  1  0.89006668  0.53228733  0.75000026  1
  O  O10  1  0.18802974  0.19702722  0.94677085  1
  O  O11  1  0.31196864  0.69702600  0.94677085  1
  Ru  Ru12  1  0.49999838  0.00000000  0.00000000  1
  Ru  Ru13  1  0.00000000  0.49999879  0.00000000  1
  Ru  Ru14  1  0.49999838  0.00000000  0.49999929  1
  Ru  Ru15  1  0.00000000  0.49999879  0.49999929  1
  Yb  Yb16  1  0.97575557  0.07277498  0.24999965  1
  Yb  Yb17  1  0.52424530  0.57277556  0.24999965  1
  Yb  Yb18  1  0.47575337  0.42722381  0.75000026  1
  Yb  Yb19  1  0.02424501  0.92722439  0.75000026  1
