# generated using pymatgen
data_NiHgO3
_symmetry_space_group_name_H-M   'P 1'
_cell_length_a   3.75173081
_cell_length_b   3.75173081
_cell_length_c   3.76758636
_cell_angle_alpha   90.00000000
_cell_angle_beta   90.00000000
_cell_angle_gamma   90.00000000
_symmetry_Int_Tables_number   1
_chemical_formula_structural   NiHgO3
_chemical_formula_sum   'Ni1 Hg1 O3'
_cell_volume   53.03060165
_cell_formula_units_Z   1
loop_
 _symmetry_equiv_pos_site_id
 _symmetry_equiv_pos_as_xyz
  1  'x, y, z'
loop_
 _atom_site_type_symbol
 _atom_site_label
 _atom_site_symmetry_multiplicity
 _atom_site_fract_x
 _atom_site_fract_y
 _atom_site_fract_z
 _atom_site_occupancy
  Hg  Hg0  1  0.00000000  0.00000000  0.07541964  1
  Ni  Ni1  1  0.50000123  0.50000123  0.57872861  1
  O  O2  1  0.50000123  0.50000123  0.07924437  1
  O  O3  1  0.50000123  0.00000000  0.58330183  1
  O  O4  1  0.00000000  0.50000123  0.58330183  1
