# generated using pymatgen
data_SrNpO3
_symmetry_space_group_name_H-M   'P 1'
_cell_length_a   4.38895516
_cell_length_b   4.38895516
_cell_length_c   4.50715342
_cell_angle_alpha   90.00000000
_cell_angle_beta   90.00000000
_cell_angle_gamma   90.00000000
_symmetry_Int_Tables_number   1
_chemical_formula_structural   SrNpO3
_chemical_formula_sum   'Sr1 Np1 O3'
_cell_volume   86.82096904
_cell_formula_units_Z   1
loop_
 _symmetry_equiv_pos_site_id
 _symmetry_equiv_pos_as_xyz
  1  'x, y, z'
loop_
 _atom_site_type_symbol
 _atom_site_label
 _atom_site_symmetry_multiplicity
 _atom_site_fract_x
 _atom_site_fract_y
 _atom_site_fract_z
 _atom_site_occupancy
  Np  Np0  1  0.50000055  0.50000055  0.56785287  1
  O  O1  1  0.50000055  0.50000055  0.07945592  1
  O  O2  1  0.50000055  0.00000000  0.64233003  1
  O  O3  1  0.00000000  0.50000055  0.64233003  1
  Sr  Sr4  1  0.00000000  0.00000000  0.96802860  1
