# generated using pymatgen
data_ThCoO3
_symmetry_space_group_name_H-M   'P 1'
_cell_length_a   3.79938932
_cell_length_b   3.79938932
_cell_length_c   3.85209051
_cell_angle_alpha   90.00000000
_cell_angle_beta   90.00000000
_cell_angle_gamma   90.00000000
_symmetry_Int_Tables_number   1
_chemical_formula_structural   ThCoO3
_chemical_formula_sum   'Th1 Co1 O3'
_cell_volume   55.60631027
_cell_formula_units_Z   1
loop_
 _symmetry_equiv_pos_site_id
 _symmetry_equiv_pos_as_xyz
  1  'x, y, z'
loop_
 _atom_site_type_symbol
 _atom_site_label
 _atom_site_symmetry_multiplicity
 _atom_site_fract_x
 _atom_site_fract_y
 _atom_site_fract_z
 _atom_site_occupancy
  Co  Co0  1  0.49999877  0.49999877  0.57847810  1
  O  O1  1  0.49999877  0.49999877  0.07812641  1
  O  O2  1  0.49999877  0.00000000  0.58614407  1
  O  O3  1  0.00000000  0.49999877  0.58614407  1
  Th  Th4  1  0.00000000  0.00000000  0.07110684  1
