# generated using pymatgen
data_AgWO3
_symmetry_space_group_name_H-M   'P 1'
_cell_length_a   5.45411939
_cell_length_b   5.54434511
_cell_length_c   7.78453122
_cell_angle_alpha   90.00000000
_cell_angle_beta   90.00000000
_cell_angle_gamma   90.00000000
_symmetry_Int_Tables_number   1
_chemical_formula_structural   AgWO3
_chemical_formula_sum   'Ag4 W4 O12'
_cell_volume   235.40048860
_cell_formula_units_Z   4
loop_
 _symmetry_equiv_pos_site_id
 _symmetry_equiv_pos_as_xyz
  1  'x, y, z'
loop_
 _atom_site_type_symbol
 _atom_site_label
 _atom_site_symmetry_multiplicity
 _atom_site_fract_x
 _atom_site_fract_y
 _atom_site_fract_z
 _atom_site_occupancy
  Ag  Ag0  1  0.99929606  0.00540190  0.24999964  1
  Ag  Ag1  1  0.50070411  0.50540324  0.24999964  1
  Ag  Ag2  1  0.49929600  0.49459764  0.75000020  1
  Ag  Ag3  1  0.00070405  0.99459718  0.75000020  1
  O  O4  1  0.72601271  0.27290689  0.02009241  1
  O  O5  1  0.77398746  0.77290824  0.02009241  1
  O  O6  1  0.04031632  0.49566900  0.24999964  1
  O  O7  1  0.45968374  0.99566854  0.24999964  1
  O  O8  1  0.72601271  0.27290689  0.47990687  1
  O  O9  1  0.77398746  0.77290824  0.47990687  1
  O  O10  1  0.22601265  0.22709445  0.52009297  1
  O  O11  1  0.27398740  0.72709399  0.52009297  1
  O  O12  1  0.54031637  0.00433054  0.75000020  1
  O  O13  1  0.95968380  0.50433008  0.75000020  1
  O  O14  1  0.22601265  0.22709445  0.97990743  1
  O  O15  1  0.27398740  0.72709399  0.97990743  1
  W  W16  1  0.50000006  0.00000000  0.00000000  1
  W  W17  1  0.00000000  0.49999954  0.00000000  1
  W  W18  1  0.50000006  0.00000000  0.50000056  1
  W  W19  1  0.00000000  0.49999954  0.50000056  1
