# generated using pymatgen
data_EuThO3
_symmetry_space_group_name_H-M   'P 1'
_cell_length_a   6.01684629
_cell_length_b   6.23862128
_cell_length_c   8.69714498
_cell_angle_alpha   90.00000000
_cell_angle_beta   90.00000000
_cell_angle_gamma   90.00000000
_symmetry_Int_Tables_number   1
_chemical_formula_structural   EuThO3
_chemical_formula_sum   'Eu4 Th4 O12'
_cell_volume   326.46321140
_cell_formula_units_Z   4
loop_
 _symmetry_equiv_pos_site_id
 _symmetry_equiv_pos_as_xyz
  1  'x, y, z'
loop_
 _atom_site_type_symbol
 _atom_site_label
 _atom_site_symmetry_multiplicity
 _atom_site_fract_x
 _atom_site_fract_y
 _atom_site_fract_z
 _atom_site_occupancy
  Eu  Eu0  1  0.98816385  0.04840813  0.25000043  1
  Eu  Eu1  1  0.51183458  0.54840643  0.25000043  1
  Eu  Eu2  1  0.48816437  0.45159337  0.75000015  1
  Eu  Eu3  1  0.01183510  0.95159327  0.75000015  1
  O  O4  1  0.68403775  0.31251456  0.07186841  1
  O  O5  1  0.81596234  0.81251286  0.07186841  1
  O  O6  1  0.13540815  0.42973598  0.25000043  1
  O  O7  1  0.36459133  0.92973427  0.25000043  1
  O  O8  1  0.68403775  0.31251456  0.42813245  1
  O  O9  1  0.81596234  0.81251286  0.42813245  1
  O  O10  1  0.18403827  0.18748694  0.57186813  1
  O  O11  1  0.31596287  0.68748684  0.57186813  1
  O  O12  1  0.63540762  0.07026553  0.75000015  1
  O  O13  1  0.86459247  0.57026542  0.75000015  1
  O  O14  1  0.18403827  0.18748694  0.92813216  1
  O  O15  1  0.31596287  0.68748684  0.92813216  1
  Th  Th16  1  0.50000114  0.00000000  0.00000000  1
  Th  Th17  1  0.00000000  0.49999990  0.00000000  1
  Th  Th18  1  0.50000114  0.00000000  0.50000086  1
  Th  Th19  1  0.00000000  0.49999990  0.50000086  1
