# generated using pymatgen
data_PaMnO3
_symmetry_space_group_name_H-M   'P 1'
_cell_length_a   5.75414530
_cell_length_b   5.82307122
_cell_length_c   8.49059602
_cell_angle_alpha   90.00000000
_cell_angle_beta   90.00000000
_cell_angle_gamma   90.00000000
_symmetry_Int_Tables_number   1
_chemical_formula_structural   PaMnO3
_chemical_formula_sum   'Pa4 Mn4 O12'
_cell_volume   284.49268481
_cell_formula_units_Z   4
loop_
 _symmetry_equiv_pos_site_id
 _symmetry_equiv_pos_as_xyz
  1  'x, y, z'
loop_
 _atom_site_type_symbol
 _atom_site_label
 _atom_site_symmetry_multiplicity
 _atom_site_fract_x
 _atom_site_fract_y
 _atom_site_fract_z
 _atom_site_occupancy
  Mn  Mn0  1  0.01333647  0.02603952  0.25000012  1
  Mn  Mn1  1  0.48666133  0.52603856  0.25000012  1
  Mn  Mn2  1  0.51333775  0.47396295  0.74999917  1
  Mn  Mn3  1  0.98666261  0.97396027  0.74999917  1
  O  O4  1  0.65741649  0.33915264  0.07851392  1
  O  O5  1  0.84258213  0.83915340  0.07851392  1
  O  O6  1  0.14098879  0.38239271  0.25000012  1
  O  O7  1  0.35901075  0.88239347  0.25000012  1
  O  O8  1  0.65741649  0.33915264  0.42148631  1
  O  O9  1  0.84258213  0.83915340  0.42148631  1
  O  O10  1  0.15741521  0.16084639  0.57851416  1
  O  O11  1  0.34258259  0.66084886  0.57851416  1
  O  O12  1  0.64098833  0.11760632  0.74999917  1
  O  O13  1  0.85901202  0.61760708  0.74999917  1
  O  O14  1  0.15741521  0.16084639  0.92148655  1
  O  O15  1  0.34258259  0.66084886  0.92148655  1
  Pa  Pa16  1  0.49999954  0.00000000  0.00000000  1
  Pa  Pa17  1  0.00000000  0.49999904  0.00000000  1
  Pa  Pa18  1  0.49999954  0.00000000  0.49999906  1
  Pa  Pa19  1  0.00000000  0.49999904  0.49999906  1
