# generated using pymatgen
data_PuGeO3
_symmetry_space_group_name_H-M   'P 1'
_cell_length_a   5.55712822
_cell_length_b   5.79507116
_cell_length_c   7.90986643
_cell_angle_alpha   90.00000000
_cell_angle_beta   90.00000000
_cell_angle_gamma   90.00000000
_symmetry_Int_Tables_number   1
_chemical_formula_structural   PuGeO3
_chemical_formula_sum   'Pu4 Ge4 O12'
_cell_volume   254.72897071
_cell_formula_units_Z   4
loop_
 _symmetry_equiv_pos_site_id
 _symmetry_equiv_pos_as_xyz
  1  'x, y, z'
loop_
 _atom_site_type_symbol
 _atom_site_label
 _atom_site_symmetry_multiplicity
 _atom_site_fract_x
 _atom_site_fract_y
 _atom_site_fract_z
 _atom_site_occupancy
  Ge  Ge0  1  0.50000106  0.00000000  0.00000000  1
  Ge  Ge1  1  0.00000000  0.49999904  0.00000000  1
  Ge  Ge2  1  0.50000106  0.00000000  0.49999959  1
  Ge  Ge3  1  0.00000000  0.49999904  0.49999959  1
  O  O4  1  0.69900313  0.30048294  0.04990476  1
  O  O5  1  0.80099645  0.80048370  0.04990476  1
  O  O6  1  0.09886941  0.46935748  0.25000043  1
  O  O7  1  0.40113165  0.96935652  0.25000043  1
  O  O8  1  0.69900313  0.30048294  0.45009483  1
  O  O9  1  0.80099645  0.80048370  0.45009483  1
  O  O10  1  0.19900207  0.19951610  0.54990436  1
  O  O11  1  0.30099719  0.69951686  0.54990436  1
  O  O12  1  0.59887047  0.03064501  0.75000002  1
  O  O13  1  0.90112911  0.53064404  0.75000002  1
  O  O14  1  0.19900207  0.19951610  0.95009569  1
  O  O15  1  0.30099719  0.69951686  0.95009569  1
  Pu  Pu16  1  0.98631339  0.05548336  0.25000043  1
  Pu  Pu17  1  0.51368799  0.55548412  0.25000043  1
  Pu  Pu18  1  0.48631233  0.44451568  0.75000002  1
  Pu  Pu19  1  0.01368872  0.94451817  0.75000002  1
