# generated using pymatgen
data_BaIrO3
_symmetry_space_group_name_H-M   'P 1'
_cell_length_a   5.77322248
_cell_length_b   5.70339649
_cell_length_c   8.10568150
_cell_angle_alpha   90.00000000
_cell_angle_beta   90.00000000
_cell_angle_gamma   90.00000000
_symmetry_Int_Tables_number   1
_chemical_formula_structural   BaIrO3
_chemical_formula_sum   'Ba4 Ir4 O12'
_cell_volume   266.89558725
_cell_formula_units_Z   4
loop_
 _symmetry_equiv_pos_site_id
 _symmetry_equiv_pos_as_xyz
  1  'x, y, z'
loop_
 _atom_site_type_symbol
 _atom_site_label
 _atom_site_symmetry_multiplicity
 _atom_site_fract_x
 _atom_site_fract_y
 _atom_site_fract_z
 _atom_site_occupancy
  Ba  Ba0  1  0.99909366  0.00990462  0.24999995  1
  Ba  Ba1  1  0.50090569  0.50990493  0.24999995  1
  Ba  Ba2  1  0.49909561  0.49009568  0.74999986  1
  Ba  Ba3  1  0.00090417  0.99009599  0.74999986  1
  Ir  Ir4  1  0.49999978  0.00000000  0.00000000  1
  Ir  Ir5  1  0.00000000  0.50000031  0.00000000  1
  Ir  Ir6  1  0.49999978  0.00000000  0.49999991  1
  Ir  Ir7  1  0.00000000  0.50000031  0.49999991  1
  O  O8  1  0.73303775  0.26765805  0.02867248  1
  O  O9  1  0.76696334  0.76765836  0.02867248  1
  O  O10  1  0.05184799  0.49123886  0.24999995  1
  O  O11  1  0.44815179  0.99123917  0.24999995  1
  O  O12  1  0.73303775  0.26765805  0.47132743  1
  O  O13  1  0.76696334  0.76765836  0.47132743  1
  O  O14  1  0.23303796  0.23234225  0.52867239  1
  O  O15  1  0.26696182  0.73234256  0.52867239  1
  O  O16  1  0.55184778  0.00876145  0.74999986  1
  O  O17  1  0.94815331  0.50876175  0.74999986  1
  O  O18  1  0.23303796  0.23234225  0.97132733  1
  O  O19  1  0.26696182  0.73234256  0.97132733  1
