# generated using pymatgen
data_CuMoO3
_symmetry_space_group_name_H-M   'P 1'
_cell_length_a   5.17582766
_cell_length_b   5.44267790
_cell_length_c   7.56872785
_cell_angle_alpha   90.00000000
_cell_angle_beta   90.00000000
_cell_angle_gamma   90.00000000
_symmetry_Int_Tables_number   1
_chemical_formula_structural   CuMoO3
_chemical_formula_sum   'Cu4 Mo4 O12'
_cell_volume   213.21380988
_cell_formula_units_Z   4
loop_
 _symmetry_equiv_pos_site_id
 _symmetry_equiv_pos_as_xyz
  1  'x, y, z'
loop_
 _atom_site_type_symbol
 _atom_site_label
 _atom_site_symmetry_multiplicity
 _atom_site_fract_x
 _atom_site_fract_y
 _atom_site_fract_z
 _atom_site_occupancy
  Cu  Cu0  1  0.00679891  0.97010112  0.24999974  1
  Cu  Cu1  1  0.49319842  0.47010131  0.24999974  1
  Cu  Cu2  1  0.50680010  0.52989908  0.75000054  1
  Cu  Cu3  1  0.99319916  0.02990072  0.75000054  1
  Mo  Mo4  1  0.49999926  0.00000000  0.00000000  1
  Mo  Mo5  1  0.00000000  0.50000019  0.00000000  1
  Mo  Mo6  1  0.49999926  0.00000000  0.50000080  1
  Mo  Mo7  1  0.00000000  0.50000019  0.50000080  1
  O  O8  1  0.68876327  0.30454310  0.05294813  1
  O  O9  1  0.81123644  0.80454329  0.05294813  1
  O  O10  1  0.10606999  0.47304839  0.24999974  1
  O  O11  1  0.39392927  0.97304674  0.24999974  1
  O  O12  1  0.68876327  0.30454310  0.44705267  1
  O  O13  1  0.81123644  0.80454329  0.44705267  1
  O  O14  1  0.18876401  0.19545709  0.55294761  1
  O  O15  1  0.31123718  0.69545729  0.55294761  1
  O  O16  1  0.60606925  0.02695181  0.75000054  1
  O  O17  1  0.89392853  0.52695200  0.75000054  1
  O  O18  1  0.18876401  0.19545709  0.94705215  1
  O  O19  1  0.31123718  0.69545729  0.94705215  1
