# generated using pymatgen
data_MgSiO3
_symmetry_space_group_name_H-M   'P 1'
_cell_length_a   4.83090700
_cell_length_b   4.98102600
_cell_length_c   6.97886800
_cell_angle_alpha   90.00000000
_cell_angle_beta   90.00000000
_cell_angle_gamma   90.00000000
_symmetry_Int_Tables_number   1
_chemical_formula_structural   MgSiO3
_chemical_formula_sum   'Mg4 Si4 O12'
_cell_volume   167.93161695
_cell_formula_units_Z   4
loop_
 _symmetry_equiv_pos_site_id
 _symmetry_equiv_pos_as_xyz
  1  'x, y, z'
loop_
 _atom_site_type_symbol
 _atom_site_label
 _atom_site_symmetry_multiplicity
 _atom_site_fract_x
 _atom_site_fract_y
 _atom_site_fract_z
 _atom_site_occupancy
  Mg  Mg0  1  0.51461900  0.55606800  0.25000000  1
  Mg  Mg1  1  0.01461900  0.94393200  0.75000000  1
  Mg  Mg2  1  0.98538100  0.05606800  0.25000000  1
  Mg  Mg3  1  0.48538100  0.44393200  0.75000000  1
  Si  Si4  1  0.50000000  0.00000000  0.50000000  1
  Si  Si5  1  0.00000000  0.50000000  0.50000000  1
  Si  Si6  1  0.00000000  0.50000000  0.00000000  1
  Si  Si7  1  0.50000000  0.00000000  0.00000000  1
  O  O8  1  0.19658600  0.20175100  0.94662200  1
  O  O9  1  0.69658600  0.29824900  0.05337800  1
  O  O10  1  0.30341400  0.70175100  0.55337800  1
  O  O11  1  0.80341400  0.79824900  0.44662200  1
  O  O12  1  0.80341400  0.79824900  0.05337800  1
  O  O13  1  0.30341400  0.70175100  0.94662200  1
  O  O14  1  0.69658600  0.29824900  0.44662200  1
  O  O15  1  0.19658600  0.20175100  0.55337800  1
  O  O16  1  0.10324200  0.46540600  0.25000000  1
  O  O17  1  0.60324200  0.03459400  0.75000000  1
  O  O18  1  0.39675800  0.96540600  0.25000000  1
  O  O19  1  0.89675800  0.53459400  0.75000000  1
