# generated using pymatgen
data_DyPdO3
_symmetry_space_group_name_H-M   'P 1'
_cell_length_a   5.37764911
_cell_length_b   5.88114863
_cell_length_c   7.50784934
_cell_angle_alpha   90.00000000
_cell_angle_beta   90.00000000
_cell_angle_gamma   90.00000000
_symmetry_Int_Tables_number   1
_chemical_formula_structural   DyPdO3
_chemical_formula_sum   'Dy4 Pd4 O12'
_cell_volume   237.44890200
_cell_formula_units_Z   4
loop_
 _symmetry_equiv_pos_site_id
 _symmetry_equiv_pos_as_xyz
  1  'x, y, z'
loop_
 _atom_site_type_symbol
 _atom_site_label
 _atom_site_symmetry_multiplicity
 _atom_site_fract_x
 _atom_site_fract_y
 _atom_site_fract_z
 _atom_site_occupancy
  Dy  Dy0  1  0.97106559  0.08554791  0.24999969  1
  Dy  Dy1  1  0.52893559  0.58554888  0.24999969  1
  Dy  Dy2  1  0.47106458  0.41445135  0.75000040  1
  Dy  Dy3  1  0.02893458  0.91445232  0.75000040  1
  O  O4  1  0.67926150  0.31250528  0.06090559  1
  O  O5  1  0.82073782  0.81250455  0.06090559  1
  O  O6  1  0.14126805  0.44186776  0.24999969  1
  O  O7  1  0.35873110  0.94186873  0.24999969  1
  O  O8  1  0.67926150  0.31250528  0.43909379  1
  O  O9  1  0.82073782  0.81250455  0.43909379  1
  O  O10  1  0.17926235  0.18749399  0.56090630  1
  O  O11  1  0.32073867  0.68749495  0.56090630  1
  O  O12  1  0.64126906  0.05813150  0.75000040  1
  O  O13  1  0.85873212  0.55813247  0.75000040  1
  O  O14  1  0.17926235  0.18749399  0.93909450  1
  O  O15  1  0.32073867  0.68749495  0.93909450  1
  Pd  Pd16  1  0.49999915  0.00000000  0.00000000  1
  Pd  Pd17  1  0.00000000  0.49999927  0.00000000  1
  Pd  Pd18  1  0.49999915  0.00000000  0.49999938  1
  Pd  Pd19  1  0.00000000  0.49999927  0.49999938  1
