# generated using pymatgen
data_CaPdO3
_symmetry_space_group_name_H-M   'P 1'
_cell_length_a   5.34743545
_cell_length_b   5.65288880
_cell_length_c   7.67745296
_cell_angle_alpha   90.00000000
_cell_angle_beta   90.00000000
_cell_angle_gamma   90.00000000
_symmetry_Int_Tables_number   1
_chemical_formula_structural   CaPdO3
_chemical_formula_sum   'Ca4 Pd4 O12'
_cell_volume   232.07756374
_cell_formula_units_Z   4
loop_
 _symmetry_equiv_pos_site_id
 _symmetry_equiv_pos_as_xyz
  1  'x, y, z'
loop_
 _atom_site_type_symbol
 _atom_site_label
 _atom_site_symmetry_multiplicity
 _atom_site_fract_x
 _atom_site_fract_y
 _atom_site_fract_z
 _atom_site_occupancy
  Ca  Ca0  1  0.97815861  0.07168016  0.24999958  1
  Ca  Ca1  1  0.52184454  0.57167939  0.24999958  1
  Ca  Ca2  1  0.47815631  0.42831906  0.75000134  1
  Ca  Ca3  1  0.02184225  0.92832005  0.75000134  1
  O  O4  1  0.68778577  0.30420729  0.05747088  1
  O  O5  1  0.81221364  0.80420652  0.05747088  1
  O  O6  1  0.11610799  0.45692744  0.24999958  1
  O  O7  1  0.38389056  0.95693020  0.24999958  1
  O  O8  1  0.68778577  0.30420729  0.44253348  1
  O  O9  1  0.81221364  0.80420652  0.44253348  1
  O  O10  1  0.18778534  0.19579193  0.55746743  1
  O  O11  1  0.31221508  0.69578938  0.55746743  1
  O  O12  1  0.61610842  0.04307001  0.75000134  1
  O  O13  1  0.88389099  0.54307277  0.75000134  1
  O  O14  1  0.18778534  0.19579193  0.94253134  1
  O  O15  1  0.31221508  0.69578938  0.94253134  1
  Pd  Pd16  1  0.49999669  0.00000000  0.00000000  1
  Pd  Pd17  1  0.00000000  0.49999922  0.00000000  1
  Pd  Pd18  1  0.49999669  0.00000000  0.50000046  1
  Pd  Pd19  1  0.00000000  0.49999922  0.50000046  1
