# generated using pymatgen
data_PrCdO3
_symmetry_space_group_name_H-M   'P 1'
_cell_length_a   5.67776001
_cell_length_b   6.10439421
_cell_length_c   8.16629078
_cell_angle_alpha   90.00000000
_cell_angle_beta   90.00000000
_cell_angle_gamma   90.00000000
_symmetry_Int_Tables_number   1
_chemical_formula_structural   PrCdO3
_chemical_formula_sum   'Pr4 Cd4 O12'
_cell_volume   283.03780244
_cell_formula_units_Z   4
loop_
 _symmetry_equiv_pos_site_id
 _symmetry_equiv_pos_as_xyz
  1  'x, y, z'
loop_
 _atom_site_type_symbol
 _atom_site_label
 _atom_site_symmetry_multiplicity
 _atom_site_fract_x
 _atom_site_fract_y
 _atom_site_fract_z
 _atom_site_occupancy
  Cd  Cd0  1  0.50000000  0.00000000  0.00000000  1
  Cd  Cd1  1  0.00000000  0.50000047  0.00000000  1
  Cd  Cd2  1  0.50000000  0.00000000  0.50000056  1
  Cd  Cd3  1  0.00000000  0.50000047  0.50000056  1
  O  O4  1  0.69241215  0.31278452  0.06531362  1
  O  O5  1  0.80758785  0.81278335  0.06531362  1
  O  O6  1  0.13200628  0.44722701  0.24999967  1
  O  O7  1  0.36799371  0.94722749  0.24999967  1
  O  O8  1  0.69241215  0.31278452  0.43468695  1
  O  O9  1  0.80758785  0.81278335  0.43468695  1
  O  O10  1  0.19241215  0.18721596  0.56531296  1
  O  O11  1  0.30758785  0.68721643  0.56531296  1
  O  O12  1  0.63200628  0.05277346  0.75000023  1
  O  O13  1  0.86799371  0.55277393  0.75000023  1
  O  O14  1  0.19241215  0.18721596  0.93468629  1
  O  O15  1  0.30758785  0.68721643  0.93468629  1
  Pr  Pr16  1  0.97592360  0.07569138  0.24999967  1
  Pr  Pr17  1  0.52407639  0.57569185  0.24999967  1
  Pr  Pr18  1  0.47592360  0.42430910  0.75000023  1
  Pr  Pr19  1  0.02407640  0.92430957  0.75000023  1
