# generated using pymatgen
data_Yb3GeO
_symmetry_space_group_name_H-M   'P 1'
_cell_length_a   6.58064500
_cell_length_b   6.59302600
_cell_length_c   9.32698800
_cell_angle_alpha   90.00000000
_cell_angle_beta   90.00000000
_cell_angle_gamma   90.00000000
_symmetry_Int_Tables_number   1
_chemical_formula_structural   Yb3GeO
_chemical_formula_sum   'Yb12 Ge4 O4'
_cell_volume   404.66409249
_cell_formula_units_Z   4
loop_
 _symmetry_equiv_pos_site_id
 _symmetry_equiv_pos_as_xyz
  1  'x, y, z'
loop_
 _atom_site_type_symbol
 _atom_site_label
 _atom_site_symmetry_multiplicity
 _atom_site_fract_x
 _atom_site_fract_y
 _atom_site_fract_z
 _atom_site_occupancy
  Yb  Yb0  1  0.77279600  0.22716000  0.47912400  1
  Yb  Yb1  1  0.27279600  0.27284000  0.47912400  1
  Yb  Yb2  1  0.50333900  0.04095400  0.75000000  1
  Yb  Yb3  1  0.49666100  0.95904600  0.25000000  1
  Yb  Yb4  1  0.99666100  0.54095400  0.25000000  1
  Yb  Yb5  1  0.72720400  0.72716000  0.52087600  1
  Yb  Yb6  1  0.22720400  0.77284000  0.52087600  1
  Yb  Yb7  1  0.27279600  0.27284000  0.02087600  1
  Yb  Yb8  1  0.00333800  0.45904600  0.75000000  1
  Yb  Yb9  1  0.77279600  0.22716000  0.02087600  1
  Yb  Yb10  1  0.72720400  0.72716000  0.97912400  1
  Yb  Yb11  1  0.22720400  0.77284000  0.97912400  1
  Ge  Ge12  1  0.98772500  0.99768400  0.75000000  1
  Ge  Ge13  1  0.48772500  0.50231600  0.75000000  1
  Ge  Ge14  1  0.01227500  0.00231600  0.25000000  1
  Ge  Ge15  1  0.51227500  0.49768400  0.25000000  1
  O  O16  1  0.50000000  0.00000000  0.00000000  1
  O  O17  1  0.50000000  0.00000000  0.50000000  1
  O  O18  1  0.00000000  0.50000000  0.50000000  1
  O  O19  1  0.00000000  0.50000000  0.00000000  1
