# generated using pymatgen
data_PrCoO3
_symmetry_space_group_name_H-M   'P 1'
_cell_length_a   5.54369135
_cell_length_b   6.33582950
_cell_length_c   8.83782523
_cell_angle_alpha   90.00000000
_cell_angle_beta   90.00000000
_cell_angle_gamma   90.00000000
_symmetry_Int_Tables_number   1
_chemical_formula_structural   PrCoO3
_chemical_formula_sum   'Pr4 Co4 O12'
_cell_volume   310.41874087
_cell_formula_units_Z   4
loop_
 _symmetry_equiv_pos_site_id
 _symmetry_equiv_pos_as_xyz
  1  'x, y, z'
loop_
 _atom_site_type_symbol
 _atom_site_label
 _atom_site_symmetry_multiplicity
 _atom_site_fract_x
 _atom_site_fract_y
 _atom_site_fract_z
 _atom_site_occupancy
  Co  Co0  1  0.48627347  0.40682755  0.25000155  1
  Co  Co1  1  0.01372732  0.90682680  0.25000155  1
  Co  Co2  1  0.98627244  0.09317328  0.75000012  1
  Co  Co3  1  0.51372810  0.59317411  0.75000012  1
  O  O4  1  0.64122618  0.33383790  0.08294688  1
  O  O5  1  0.85877436  0.83383715  0.08294688  1
  O  O6  1  0.17580885  0.47586666  0.25000155  1
  O  O7  1  0.32419013  0.97586591  0.25000155  1
  O  O8  1  0.64122618  0.33383790  0.41705396  1
  O  O9  1  0.85877436  0.83383715  0.41705396  1
  O  O10  1  0.14122720  0.16616293  0.58294658  1
  O  O11  1  0.35877358  0.66616060  0.58294658  1
  O  O12  1  0.67580963  0.02413575  0.75000012  1
  O  O13  1  0.82419091  0.52413500  0.75000012  1
  O  O14  1  0.14122720  0.16616293  0.91705366  1
  O  O15  1  0.35877358  0.66616060  0.91705366  1
  Pr  Pr16  1  0.50000078  0.00000000  0.00000000  1
  Pr  Pr17  1  0.00000000  0.50000083  0.00000000  1
  Pr  Pr18  1  0.50000078  0.00000000  0.49999970  1
  Pr  Pr19  1  0.00000000  0.50000083  0.49999970  1
