# generated using pymatgen
data_PuHfO3
_symmetry_space_group_name_H-M   'P 1'
_cell_length_a   5.72051545
_cell_length_b   5.78888317
_cell_length_c   8.16138965
_cell_angle_alpha   90.00000000
_cell_angle_beta   90.00000000
_cell_angle_gamma   90.00000000
_symmetry_Int_Tables_number   1
_chemical_formula_structural   PuHfO3
_chemical_formula_sum   'Pu4 Hf4 O12'
_cell_volume   270.26764715
_cell_formula_units_Z   4
loop_
 _symmetry_equiv_pos_site_id
 _symmetry_equiv_pos_as_xyz
  1  'x, y, z'
loop_
 _atom_site_type_symbol
 _atom_site_label
 _atom_site_symmetry_multiplicity
 _atom_site_fract_x
 _atom_site_fract_y
 _atom_site_fract_z
 _atom_site_occupancy
  Hf  Hf0  1  0.50000040  0.00000000  0.00000000  1
  Hf  Hf1  1  0.00000000  0.50000145  0.00000000  1
  Hf  Hf2  1  0.50000040  0.00000000  0.50000063  1
  Hf  Hf3  1  0.00000000  0.50000145  0.50000063  1
  O  O4  1  0.70910393  0.28992984  0.03734903  1
  O  O5  1  0.79089551  0.78992957  0.03734903  1
  O  O6  1  0.07114743  0.48655154  0.25000032  1
  O  O7  1  0.42885296  0.98655126  0.25000032  1
  O  O8  1  0.70910393  0.28992984  0.46265038  1
  O  O9  1  0.79089551  0.78992957  0.46265038  1
  O  O10  1  0.20910528  0.21006988  0.53734967  1
  O  O11  1  0.29089686  0.71006961  0.53734967  1
  O  O12  1  0.57114608  0.01344819  0.74999973  1
  O  O13  1  0.92885161  0.51344964  0.74999973  1
  O  O14  1  0.20910528  0.21006988  0.96265101  1
  O  O15  1  0.29089686  0.71006961  0.96265101  1
  Pu  Pu16  1  0.99281088  0.03955685  0.25000032  1
  Pu  Pu17  1  0.50718856  0.53955658  0.25000032  1
  Pu  Pu18  1  0.49281223  0.46044287  0.74999973  1
  Pu  Pu19  1  0.00718991  0.96044433  0.74999973  1
