# generated using pymatgen
data_NpNbO3
_symmetry_space_group_name_H-M   'P 1'
_cell_length_a   5.49045816
_cell_length_b   6.06184978
_cell_length_c   7.82002847
_cell_angle_alpha   90.00000000
_cell_angle_beta   90.00000000
_cell_angle_gamma   90.00000000
_symmetry_Int_Tables_number   1
_chemical_formula_structural   NpNbO3
_chemical_formula_sum   'Np4 Nb4 O12'
_cell_volume   260.26878831
_cell_formula_units_Z   4
loop_
 _symmetry_equiv_pos_site_id
 _symmetry_equiv_pos_as_xyz
  1  'x, y, z'
loop_
 _atom_site_type_symbol
 _atom_site_label
 _atom_site_symmetry_multiplicity
 _atom_site_fract_x
 _atom_site_fract_y
 _atom_site_fract_z
 _atom_site_occupancy
  Nb  Nb0  1  0.50000017  0.00000000  0.00000000  1
  Nb  Nb1  1  0.00000000  0.50000084  0.00000000  1
  Nb  Nb2  1  0.50000017  0.00000000  0.49999946  1
  Nb  Nb3  1  0.00000000  0.50000084  0.49999946  1
  Np  Np4  1  0.96993545  0.07675710  0.25000037  1
  Np  Np5  1  0.53006505  0.57675629  0.25000037  1
  Np  Np6  1  0.46993528  0.42324374  0.74999983  1
  Np  Np7  1  0.03006489  0.92324459  0.74999983  1
  O  O8  1  0.68494466  0.29886587  0.04607272  1
  O  O9  1  0.81505402  0.79886506  0.04607272  1
  O  O10  1  0.12981066  0.45308117  0.25000037  1
  O  O11  1  0.37019133  0.95308201  0.25000037  1
  O  O12  1  0.68494466  0.29886587  0.45392674  1
  O  O13  1  0.81505402  0.79886506  0.45392674  1
  O  O14  1  0.18494631  0.20113497  0.54607346  1
  O  O15  1  0.31505385  0.70113417  0.54607346  1
  O  O16  1  0.62981083  0.04691802  0.74999983  1
  O  O17  1  0.87018967  0.54691887  0.74999983  1
  O  O18  1  0.18494631  0.20113497  0.95392747  1
  O  O19  1  0.31505385  0.70113417  0.95392747  1
