# generated using pymatgen
data_PaAuO3
_symmetry_space_group_name_H-M   'P 1'
_cell_length_a   5.84446951
_cell_length_b   6.14364017
_cell_length_c   8.54788366
_cell_angle_alpha   90.00000000
_cell_angle_beta   90.00000000
_cell_angle_gamma   90.00000000
_symmetry_Int_Tables_number   1
_chemical_formula_structural   PaAuO3
_chemical_formula_sum   'Pa4 Au4 O12'
_cell_volume   306.92302618
_cell_formula_units_Z   4
loop_
 _symmetry_equiv_pos_site_id
 _symmetry_equiv_pos_as_xyz
  1  'x, y, z'
loop_
 _atom_site_type_symbol
 _atom_site_label
 _atom_site_symmetry_multiplicity
 _atom_site_fract_x
 _atom_site_fract_y
 _atom_site_fract_z
 _atom_site_occupancy
  Au  Au0  1  0.46562139  0.43101157  0.24999989  1
  Au  Au1  1  0.03438122  0.93101156  0.24999989  1
  Au  Au2  1  0.96561886  0.06898842  0.75000085  1
  Au  Au3  1  0.53438041  0.56899003  0.75000085  1
  O  O4  1  0.71416918  0.28669160  0.06306473  1
  O  O5  1  0.78583009  0.78669158  0.06306473  1
  O  O6  1  0.10554080  0.46741019  0.24999989  1
  O  O7  1  0.39445838  0.96741180  0.24999989  1
  O  O8  1  0.71416918  0.28669160  0.43693388  1
  O  O9  1  0.78583009  0.78669158  0.43693388  1
  O  O10  1  0.21416999  0.21330839  0.56306569  1
  O  O11  1  0.28582919  0.71330838  0.56306569  1
  O  O12  1  0.60554170  0.03258980  0.75000085  1
  O  O13  1  0.89445928  0.53258979  0.75000085  1
  O  O14  1  0.21416999  0.21330839  0.93693484  1
  O  O15  1  0.28582919  0.71330838  0.93693484  1
  Pa  Pa16  1  0.50000090  0.00000000  0.00000000  1
  Pa  Pa17  1  0.00000000  0.49999999  0.00000000  1
  Pa  Pa18  1  0.50000090  0.00000000  0.49999979  1
  Pa  Pa19  1  0.00000000  0.49999999  0.49999979  1
