# generated using pymatgen
data_EuCdO3
_symmetry_space_group_name_H-M   'P 1'
_cell_length_a   5.65854420
_cell_length_b   5.95981172
_cell_length_c   7.94919070
_cell_angle_alpha   90.00000000
_cell_angle_beta   90.00000000
_cell_angle_gamma   90.00000000
_symmetry_Int_Tables_number   1
_chemical_formula_structural   EuCdO3
_chemical_formula_sum   'Eu4 Cd4 O12'
_cell_volume   268.07737861
_cell_formula_units_Z   4
loop_
 _symmetry_equiv_pos_site_id
 _symmetry_equiv_pos_as_xyz
  1  'x, y, z'
loop_
 _atom_site_type_symbol
 _atom_site_label
 _atom_site_symmetry_multiplicity
 _atom_site_fract_x
 _atom_site_fract_y
 _atom_site_fract_z
 _atom_site_occupancy
  Cd  Cd0  1  0.49999963  0.00000000  0.00000000  1
  Cd  Cd1  1  0.00000000  0.50000069  0.00000000  1
  Cd  Cd2  1  0.49999963  0.00000000  0.50000058  1
  Cd  Cd3  1  0.00000000  0.50000069  0.50000058  1
  Eu  Eu4  1  0.97891256  0.06468157  0.25000029  1
  Eu  Eu5  1  0.52108809  0.56468059  0.25000029  1
  Eu  Eu6  1  0.47891293  0.43531912  0.75000088  1
  Eu  Eu7  1  0.02108846  0.93531814  0.75000088  1
  O  O8  1  0.69846234  0.29897589  0.05608999  1
  O  O9  1  0.80153832  0.79897658  0.05608999  1
  O  O10  1  0.11511618  0.44930614  0.25000029  1
  O  O11  1  0.38488168  0.94930516  0.25000029  1
  O  O12  1  0.69846234  0.29897589  0.44391060  1
  O  O13  1  0.80153832  0.79897658  0.44391060  1
  O  O14  1  0.19846271  0.20102313  0.55608806  1
  O  O15  1  0.30153692  0.70102382  0.55608806  1
  O  O16  1  0.61511581  0.05069455  0.75000088  1
  O  O17  1  0.88488131  0.55069357  0.75000088  1
  O  O18  1  0.19846271  0.20102313  0.94391118  1
  O  O19  1  0.30153692  0.70102382  0.94391118  1
