# generated using pymatgen
data_PrLuO3
_symmetry_space_group_name_H-M   'P 1'
_cell_length_a   5.77056200
_cell_length_b   6.01033000
_cell_length_c   8.35974900
_cell_angle_alpha   90.00000000
_cell_angle_beta   90.00000000
_cell_angle_gamma   90.00000000
_symmetry_Int_Tables_number   1
_chemical_formula_structural   PrLuO3
_chemical_formula_sum   'Pr4 Lu4 O12'
_cell_volume   289.94102330
_cell_formula_units_Z   4
loop_
 _symmetry_equiv_pos_site_id
 _symmetry_equiv_pos_as_xyz
  1  'x, y, z'
loop_
 _atom_site_type_symbol
 _atom_site_label
 _atom_site_symmetry_multiplicity
 _atom_site_fract_x
 _atom_site_fract_y
 _atom_site_fract_z
 _atom_site_occupancy
  Pr  Pr0  1  0.98433700  0.05388900  0.25000000  1
  Pr  Pr1  1  0.48433700  0.44611100  0.75000000  1
  Pr  Pr2  1  0.51566300  0.55388900  0.25000000  1
  Pr  Pr3  1  0.01566300  0.94611100  0.75000000  1
  Lu  Lu4  1  0.00000000  0.50000000  0.00000000  1
  Lu  Lu5  1  0.50000000  0.00000000  0.00000000  1
  Lu  Lu6  1  0.50000000  0.00000000  0.50000000  1
  Lu  Lu7  1  0.00000000  0.50000000  0.50000000  1
  O  O8  1  0.69194800  0.30582700  0.43525300  1
  O  O9  1  0.19194800  0.19417300  0.56474700  1
  O  O10  1  0.80805200  0.80582700  0.06474700  1
  O  O11  1  0.30805200  0.69417300  0.93525300  1
  O  O12  1  0.30805200  0.69417300  0.56474700  1
  O  O13  1  0.80805200  0.80582700  0.43525300  1
  O  O14  1  0.19194800  0.19417300  0.93525300  1
  O  O15  1  0.69194800  0.30582700  0.06474700  1
  O  O16  1  0.12307900  0.44588800  0.25000000  1
  O  O17  1  0.62307900  0.05411200  0.75000000  1
  O  O18  1  0.37692100  0.94588800  0.25000000  1
  O  O19  1  0.87692100  0.55411200  0.75000000  1
