# generated using pymatgen
data_LiPa3S
_symmetry_space_group_name_H-M   'P 1'
_cell_length_a   5.11184734
_cell_length_b   5.11184734
_cell_length_c   5.11184734
_cell_angle_alpha   90.00000000
_cell_angle_beta   90.00000000
_cell_angle_gamma   90.00000000
_symmetry_Int_Tables_number   1
_chemical_formula_structural   LiPa3S
_chemical_formula_sum   'Li1 Pa3 S1'
_cell_volume   133.57759679
_cell_formula_units_Z   1
loop_
 _symmetry_equiv_pos_site_id
 _symmetry_equiv_pos_as_xyz
  1  'x, y, z'
loop_
 _atom_site_type_symbol
 _atom_site_label
 _atom_site_symmetry_multiplicity
 _atom_site_fract_x
 _atom_site_fract_y
 _atom_site_fract_z
 _atom_site_occupancy
  Li  Li0  1  0.00000000  0.00000000  0.00000000  1
  Pa  Pa1  1  0.50000000  0.50000000  0.00000000  1
  Pa  Pa2  1  0.50000000  0.00000000  0.50000000  1
  Pa  Pa3  1  0.00000000  0.50000000  0.50000000  1
  S  S4  1  0.50000000  0.50000000  0.50000000  1
