# generated using pymatgen
data_LiTaO3
_symmetry_space_group_name_H-M   'P 1'
_cell_length_a   5.15113712
_cell_length_b   5.38004746
_cell_length_c   7.48521319
_cell_angle_alpha   90.00000000
_cell_angle_beta   90.00000000
_cell_angle_gamma   90.00000000
_symmetry_Int_Tables_number   1
_chemical_formula_structural   LiTaO3
_chemical_formula_sum   'Li4 Ta4 O12'
_cell_volume   207.44042420
_cell_formula_units_Z   4
loop_
 _symmetry_equiv_pos_site_id
 _symmetry_equiv_pos_as_xyz
  1  'x, y, z'
loop_
 _atom_site_type_symbol
 _atom_site_label
 _atom_site_symmetry_multiplicity
 _atom_site_fract_x
 _atom_site_fract_y
 _atom_site_fract_z
 _atom_site_occupancy
  Li  Li0  1  0.99720700  0.02682132  0.24999956  1
  Li  Li1  1  0.50279190  0.52682063  0.24999956  1
  Li  Li2  1  0.49720866  0.47317984  0.75000001  1
  Li  Li3  1  0.00279162  0.97317915  0.75000001  1
  O  O4  1  0.68058565  0.31329649  0.06282653  1
  O  O5  1  0.81941519  0.81329580  0.06282653  1
  O  O6  1  0.12228174  0.45738630  0.24999956  1
  O  O7  1  0.37771854  0.95738561  0.24999956  1
  O  O8  1  0.68058565  0.31329649  0.43717392  1
  O  O9  1  0.81941519  0.81329580  0.43717392  1
  O  O10  1  0.18058537  0.18670281  0.56282565  1
  O  O11  1  0.31941491  0.68670398  0.56282565  1
  O  O12  1  0.62228008  0.04261487  0.75000001  1
  O  O13  1  0.87771882  0.54261417  0.75000001  1
  O  O14  1  0.18058537  0.18670281  0.93717438  1
  O  O15  1  0.31941491  0.68670398  0.93717438  1
  Ta  Ta16  1  0.50000028  0.00000000  0.00000000  1
  Ta  Ta17  1  0.00000000  0.49999931  0.00000000  1
  Ta  Ta18  1  0.50000028  0.00000000  0.50000046  1
  Ta  Ta19  1  0.00000000  0.49999931  0.50000046  1
