# generated using pymatgen
data_PaPbO3
_symmetry_space_group_name_H-M   'P 1'
_cell_length_a   6.05383695
_cell_length_b   6.29702225
_cell_length_c   8.73598379
_cell_angle_alpha   90.00000000
_cell_angle_beta   90.00000000
_cell_angle_gamma   90.00000000
_symmetry_Int_Tables_number   1
_chemical_formula_structural   PaPbO3
_chemical_formula_sum   'Pa4 Pb4 O12'
_cell_volume   333.02571349
_cell_formula_units_Z   4
loop_
 _symmetry_equiv_pos_site_id
 _symmetry_equiv_pos_as_xyz
  1  'x, y, z'
loop_
 _atom_site_type_symbol
 _atom_site_label
 _atom_site_symmetry_multiplicity
 _atom_site_fract_x
 _atom_site_fract_y
 _atom_site_fract_z
 _atom_site_occupancy
  O  O0  1  0.68350536  0.31035463  0.05604406  1
  O  O1  1  0.81649209  0.81035604  0.05604406  1
  O  O2  1  0.11756015  0.46762261  0.25000046  1
  O  O3  1  0.38244175  0.96762085  0.25000046  1
  O  O4  1  0.68350536  0.31035463  0.44395687  1
  O  O5  1  0.81649209  0.81035604  0.44395687  1
  O  O6  1  0.18350841  0.18964519  0.55604270  1
  O  O7  1  0.31649349  0.68964501  0.55604270  1
  O  O8  1  0.61755875  0.03237880  0.75000139  1
  O  O9  1  0.88244200  0.53237862  0.75000139  1
  O  O10  1  0.18350841  0.18964519  0.94395665  1
  O  O11  1  0.31649349  0.68964501  0.94395665  1
  Pa  Pa12  1  0.50000025  0.00000000  0.00000000  1
  Pa  Pa13  1  0.00000000  0.50000141  0.00000000  1
  Pa  Pa14  1  0.50000025  0.00000000  0.49999864  1
  Pa  Pa15  1  0.00000000  0.50000141  0.49999864  1
  Pb  Pb16  1  0.99056847  0.03619965  0.25000046  1
  Pb  Pb17  1  0.50943229  0.53620106  0.25000046  1
  Pb  Pb18  1  0.49056987  0.46380176  0.75000139  1
  Pb  Pb19  1  0.00943038  0.96379999  0.75000139  1
