# generated using pymatgen
data_NpCrO3
_symmetry_space_group_name_H-M   'P 1'
_cell_length_a   5.44123681
_cell_length_b   5.55513471
_cell_length_c   7.76075424
_cell_angle_alpha   90.00000000
_cell_angle_beta   90.00000000
_cell_angle_gamma   90.00000000
_symmetry_Int_Tables_number   1
_chemical_formula_structural   NpCrO3
_chemical_formula_sum   'Np4 Cr4 O12'
_cell_volume   234.58279329
_cell_formula_units_Z   4
loop_
 _symmetry_equiv_pos_site_id
 _symmetry_equiv_pos_as_xyz
  1  'x, y, z'
loop_
 _atom_site_type_symbol
 _atom_site_label
 _atom_site_symmetry_multiplicity
 _atom_site_fract_x
 _atom_site_fract_y
 _atom_site_fract_z
 _atom_site_occupancy
  Cr  Cr0  1  0.50000029  0.00000000  0.00000000  1
  Cr  Cr1  1  0.00000000  0.50000048  0.00000000  1
  Cr  Cr2  1  0.50000029  0.00000000  0.50000037  1
  Cr  Cr3  1  0.00000000  0.50000048  0.50000037  1
  Np  Np4  1  0.99099712  0.04338869  0.24999890  1
  Np  Np5  1  0.50900376  0.54338916  0.24999890  1
  Np  Np6  1  0.49099499  0.45661179  0.74999927  1
  Np  Np7  1  0.00900347  0.95661227  0.74999927  1
  O  O8  1  0.70510623  0.29373905  0.04040329  1
  O  O9  1  0.79489281  0.79373953  0.04040329  1
  O  O10  1  0.07759265  0.48360303  0.24999890  1
  O  O11  1  0.42240764  0.98360171  0.24999890  1
  O  O12  1  0.70510623  0.29373905  0.45959708  1
  O  O13  1  0.79489281  0.79373953  0.45959708  1
  O  O14  1  0.20510778  0.20626142  0.54040237  1
  O  O15  1  0.29489251  0.70626190  0.54040237  1
  O  O16  1  0.57759295  0.01639744  0.74999927  1
  O  O17  1  0.92240793  0.51639792  0.74999927  1
  O  O18  1  0.20510778  0.20626142  0.95959745  1
  O  O19  1  0.29489251  0.70626190  0.95959745  1
