# generated using pymatgen
data_GeWO3
_symmetry_space_group_name_H-M   'P 1'
_cell_length_a   5.18291207
_cell_length_b   5.84490268
_cell_length_c   7.65683616
_cell_angle_alpha   90.00000000
_cell_angle_beta   90.00000000
_cell_angle_gamma   90.00000000
_symmetry_Int_Tables_number   1
_chemical_formula_structural   GeWO3
_chemical_formula_sum   'Ge4 W4 O12'
_cell_volume   231.95325924
_cell_formula_units_Z   4
loop_
 _symmetry_equiv_pos_site_id
 _symmetry_equiv_pos_as_xyz
  1  'x, y, z'
loop_
 _atom_site_type_symbol
 _atom_site_label
 _atom_site_symmetry_multiplicity
 _atom_site_fract_x
 _atom_site_fract_y
 _atom_site_fract_z
 _atom_site_occupancy
  Ge  Ge0  1  0.96376707  0.01724922  0.25000013  1
  Ge  Ge1  1  0.53623136  0.51724899  0.25000013  1
  Ge  Ge2  1  0.46376631  0.48275055  0.74999907  1
  Ge  Ge3  1  0.03623446  0.98275032  0.74999907  1
  O  O4  1  0.68354237  0.29987839  0.03977361  1
  O  O5  1  0.81645800  0.79987816  0.03977361  1
  O  O6  1  0.11434498  0.48023725  0.25000013  1
  O  O7  1  0.38565578  0.98023873  0.25000013  1
  O  O8  1  0.68354237  0.29987839  0.46022664  1
  O  O9  1  0.81645800  0.79987816  0.46022664  1
  O  O10  1  0.18354161  0.20012138  0.53977255  1
  O  O11  1  0.31645916  0.70012115  0.53977255  1
  O  O12  1  0.61434575  0.01976252  0.74999907  1
  O  O13  1  0.88565462  0.51976229  0.74999907  1
  O  O14  1  0.18354161  0.20012138  0.96022689  1
  O  O15  1  0.31645916  0.70012115  0.96022689  1
  W  W16  1  0.50000077  0.00000000  0.00000000  1
  W  W17  1  0.00000000  0.49999977  0.00000000  1
  W  W18  1  0.50000077  0.00000000  0.50000025  1
  W  W19  1  0.00000000  0.49999977  0.50000025  1
