# generated using pymatgen
data_CdCuO3
_symmetry_space_group_name_H-M   'P 1'
_cell_length_a   5.21284382
_cell_length_b   5.35451549
_cell_length_c   7.44651083
_cell_angle_alpha   90.00000000
_cell_angle_beta   90.00000000
_cell_angle_gamma   90.00000000
_symmetry_Int_Tables_number   1
_chemical_formula_structural   CdCuO3
_chemical_formula_sum   'Cd4 Cu4 O12'
_cell_volume   207.84889415
_cell_formula_units_Z   4
loop_
 _symmetry_equiv_pos_site_id
 _symmetry_equiv_pos_as_xyz
  1  'x, y, z'
loop_
 _atom_site_type_symbol
 _atom_site_label
 _atom_site_symmetry_multiplicity
 _atom_site_fract_x
 _atom_site_fract_y
 _atom_site_fract_z
 _atom_site_occupancy
  Cd  Cd0  1  0.98705048  0.05226803  0.25000031  1
  Cd  Cd1  1  0.51294842  0.55226846  0.25000031  1
  Cd  Cd2  1  0.48705085  0.44773239  0.74999958  1
  Cd  Cd3  1  0.01294879  0.94773094  0.74999958  1
  Cu  Cu4  1  0.49999963  0.00000000  0.00000000  1
  Cu  Cu5  1  0.00000000  0.49999855  0.00000000  1
  Cu  Cu6  1  0.49999963  0.00000000  0.50000062  1
  Cu  Cu7  1  0.00000000  0.49999855  0.50000062  1
  O  O8  1  0.70045260  0.29551507  0.05069354  1
  O  O9  1  0.79954822  0.79551362  0.05069354  1
  O  O10  1  0.09520523  0.46805169  0.25000031  1
  O  O11  1  0.40479440  0.96805024  0.25000031  1
  O  O12  1  0.70045260  0.29551507  0.44930708  1
  O  O13  1  0.79954822  0.79551362  0.44930708  1
  O  O14  1  0.20045297  0.20448535  0.55069416  1
  O  O15  1  0.29954859  0.70448578  0.55069416  1
  O  O16  1  0.59520486  0.03194874  0.74999958  1
  O  O17  1  0.90479404  0.53194916  0.74999958  1
  O  O18  1  0.20045297  0.20448535  0.94930635  1
  O  O19  1  0.29954859  0.70448578  0.94930635  1
