# generated using pymatgen
data_Ba3GeS
_symmetry_space_group_name_H-M   'P 1'
_cell_length_a   8.57269530
_cell_length_b   11.67722971
_cell_length_c   7.99418660
_cell_angle_alpha   90.00000000
_cell_angle_beta   90.00000000
_cell_angle_gamma   90.00000000
_symmetry_Int_Tables_number   1
_chemical_formula_structural   Ba3GeS
_chemical_formula_sum   'Ba12 Ge4 S4'
_cell_volume   800.26070546
_cell_formula_units_Z   4
loop_
 _symmetry_equiv_pos_site_id
 _symmetry_equiv_pos_as_xyz
  1  'x, y, z'
loop_
 _atom_site_type_symbol
 _atom_site_label
 _atom_site_symmetry_multiplicity
 _atom_site_fract_x
 _atom_site_fract_y
 _atom_site_fract_z
 _atom_site_occupancy
  Ba  Ba0  1  0.55743948  0.25000000  0.13027550  1
  Ba  Ba1  1  0.81297988  0.56860745  0.18350668  1
  Ba  Ba2  1  0.81297988  0.93139255  0.18350668  1
  Ba  Ba3  1  0.31297988  0.56860745  0.31649332  1
  Ba  Ba4  1  0.31297988  0.93139255  0.31649332  1
  Ba  Ba5  1  0.05743948  0.25000000  0.36972450  1
  Ba  Ba6  1  0.94256052  0.75000000  0.63027550  1
  Ba  Ba7  1  0.68702012  0.06860745  0.68350668  1
  Ba  Ba8  1  0.68702012  0.43139255  0.68350668  1
  Ba  Ba9  1  0.18702012  0.06860745  0.81649332  1
  Ba  Ba10  1  0.18702012  0.43139255  0.81649332  1
  Ba  Ba11  1  0.44256052  0.75000000  0.86972450  1
  Ge  Ge12  1  0.07648456  0.75000000  0.02633372  1
  Ge  Ge13  1  0.57648456  0.75000000  0.47366628  1
  Ge  Ge14  1  0.42351544  0.25000000  0.52633372  1
  Ge  Ge15  1  0.92351544  0.25000000  0.97366628  1
  S  S16  1  0.50000000  0.00000000  0.00000000  1
  S  S17  1  0.50000000  0.50000000  0.00000000  1
  S  S18  1  0.00000000  0.00000000  0.50000000  1
  S  S19  1  0.00000000  0.50000000  0.50000000  1
