# generated using pymatgen
data_TlAsO3
_symmetry_space_group_name_H-M   'P 1'
_cell_length_a   5.52903735
_cell_length_b   5.72164230
_cell_length_c   8.04521932
_cell_angle_alpha   90.00000000
_cell_angle_beta   90.00000000
_cell_angle_gamma   90.00000000
_symmetry_Int_Tables_number   1
_chemical_formula_structural   TlAsO3
_chemical_formula_sum   'Tl4 As4 O12'
_cell_volume   254.51191300
_cell_formula_units_Z   4
loop_
 _symmetry_equiv_pos_site_id
 _symmetry_equiv_pos_as_xyz
  1  'x, y, z'
loop_
 _atom_site_type_symbol
 _atom_site_label
 _atom_site_symmetry_multiplicity
 _atom_site_fract_x
 _atom_site_fract_y
 _atom_site_fract_z
 _atom_site_occupancy
  As  As0  1  0.50000024  0.00000000  0.00000000  1
  As  As1  1  0.00000000  0.49999980  0.00000000  1
  As  As2  1  0.50000024  0.00000000  0.50000004  1
  As  As3  1  0.00000000  0.49999980  0.50000004  1
  O  O4  1  0.69126681  0.30418889  0.06230781  1
  O  O5  1  0.80873391  0.80419043  0.06230781  1
  O  O6  1  0.11987801  0.43746181  0.25000064  1
  O  O7  1  0.38012223  0.93746161  0.25000064  1
  O  O8  1  0.69126681  0.30418889  0.43769347  1
  O  O9  1  0.80873391  0.80419043  0.43769347  1
  O  O10  1  0.19126657  0.19580916  0.56230785  1
  O  O11  1  0.30873367  0.69581071  0.56230785  1
  O  O12  1  0.61987825  0.06253974  0.75000068  1
  O  O13  1  0.88012247  0.56253779  0.75000068  1
  O  O14  1  0.19126657  0.19580916  0.93769227  1
  O  O15  1  0.30873367  0.69581071  0.93769227  1
  Tl  Tl16  1  0.98374991  0.05085428  0.25000064  1
  Tl  Tl17  1  0.51625081  0.55085233  0.25000064  1
  Tl  Tl18  1  0.48374967  0.44914727  0.75000068  1
  Tl  Tl19  1  0.01625057  0.94914707  0.75000068  1
