# generated using pymatgen
data_LiIrO3
_symmetry_space_group_name_H-M   'P 1'
_cell_length_a   5.01207043
_cell_length_b   5.17037536
_cell_length_c   7.30297338
_cell_angle_alpha   90.00000000
_cell_angle_beta   90.00000000
_cell_angle_gamma   90.00000000
_symmetry_Int_Tables_number   1
_chemical_formula_structural   LiIrO3
_chemical_formula_sum   'Li4 Ir4 O12'
_cell_volume   189.25133688
_cell_formula_units_Z   4
loop_
 _symmetry_equiv_pos_site_id
 _symmetry_equiv_pos_as_xyz
  1  'x, y, z'
loop_
 _atom_site_type_symbol
 _atom_site_label
 _atom_site_symmetry_multiplicity
 _atom_site_fract_x
 _atom_site_fract_y
 _atom_site_fract_z
 _atom_site_occupancy
  Ir  Ir0  1  0.50000095  0.00000000  0.00000000  1
  Ir  Ir1  1  0.00000000  0.50000045  0.00000000  1
  Ir  Ir2  1  0.50000095  0.00000000  0.50000045  1
  Ir  Ir3  1  0.00000000  0.50000045  0.50000045  1
  Li  Li4  1  0.00275734  0.05166936  0.24999954  1
  Li  Li5  1  0.49724361  0.55166788  0.24999954  1
  Li  Li6  1  0.50275630  0.44833109  0.75000000  1
  Li  Li7  1  0.99724266  0.94833153  0.75000000  1
  O  O8  1  0.66780386  0.32718901  0.06981677  1
  O  O9  1  0.83219700  0.82718946  0.06981677  1
  O  O10  1  0.13479858  0.43179070  0.24999954  1
  O  O11  1  0.36520237  0.93178922  0.24999954  1
  O  O12  1  0.66780386  0.32718901  0.43018232  1
  O  O13  1  0.83219700  0.82718946  0.43018232  1
  O  O14  1  0.16780291  0.17280950  0.56981722  1
  O  O15  1  0.33219605  0.67280995  0.56981722  1
  O  O16  1  0.63479754  0.06820975  0.75000000  1
  O  O17  1  0.86520133  0.56821020  0.75000000  1
  O  O18  1  0.16780291  0.17280950  0.93018277  1
  O  O19  1  0.33219605  0.67280995  0.93018277  1
