# generated using pymatgen
data_LiIrO3
_symmetry_space_group_name_H-M   'P 1'
_cell_length_a   5.13920999
_cell_length_b   5.40765531
_cell_length_c   6.62701185
_cell_angle_alpha   90.00000000
_cell_angle_beta   90.00000000
_cell_angle_gamma   90.00000000
_symmetry_Int_Tables_number   1
_chemical_formula_structural   LiIrO3
_chemical_formula_sum   'Li4 Ir4 O12'
_cell_volume   184.17179124
_cell_formula_units_Z   4
loop_
 _symmetry_equiv_pos_site_id
 _symmetry_equiv_pos_as_xyz
  1  'x, y, z'
loop_
 _atom_site_type_symbol
 _atom_site_label
 _atom_site_symmetry_multiplicity
 _atom_site_fract_x
 _atom_site_fract_y
 _atom_site_fract_z
 _atom_site_occupancy
  Ir  Ir0  1  0.02186328  0.07185184  0.24999955  1
  Ir  Ir1  1  0.47813575  0.57185043  0.24999955  1
  Ir  Ir2  1  0.52186426  0.42814859  0.75000017  1
  Ir  Ir3  1  0.97813672  0.92814902  0.75000017  1
  Li  Li4  1  0.49999903  0.00000000  0.00000000  1
  Li  Li5  1  0.00000000  0.50000043  0.00000000  1
  Li  Li6  1  0.49999903  0.00000000  0.50000061  1
  Li  Li7  1  0.00000000  0.50000043  0.50000061  1
  O  O8  1  0.64487149  0.34392540  0.06226939  1
  O  O9  1  0.85512949  0.84392398  0.06226939  1
  O  O10  1  0.13695490  0.41452161  0.24999955  1
  O  O11  1  0.36304413  0.91452205  0.24999955  1
  O  O12  1  0.64487149  0.34392540  0.43772971  1
  O  O13  1  0.85512949  0.84392398  0.43772971  1
  O  O14  1  0.14487052  0.15607504  0.56227001  1
  O  O15  1  0.35512851  0.65607547  0.56227001  1
  O  O16  1  0.63695588  0.08547882  0.75000017  1
  O  O17  1  0.86304510  0.58547741  0.75000017  1
  O  O18  1  0.14487052  0.15607504  0.93773033  1
  O  O19  1  0.35512851  0.65607547  0.93773033  1
