# generated using pymatgen
data_PuTlO3
_symmetry_space_group_name_H-M   'P 1'
_cell_length_a   5.78397020
_cell_length_b   6.16834422
_cell_length_c   8.28352986
_cell_angle_alpha   90.00000000
_cell_angle_beta   90.00000000
_cell_angle_gamma   90.00000000
_symmetry_Int_Tables_number   1
_chemical_formula_structural   PuTlO3
_chemical_formula_sum   'Pu4 Tl4 O12'
_cell_volume   295.53579546
_cell_formula_units_Z   4
loop_
 _symmetry_equiv_pos_site_id
 _symmetry_equiv_pos_as_xyz
  1  'x, y, z'
loop_
 _atom_site_type_symbol
 _atom_site_label
 _atom_site_symmetry_multiplicity
 _atom_site_fract_x
 _atom_site_fract_y
 _atom_site_fract_z
 _atom_site_occupancy
  O  O0  1  0.68139009  0.31771573  0.06816780  1
  O  O1  1  0.81861072  0.81771377  0.06816780  1
  O  O2  1  0.14733824  0.42809543  0.24999970  1
  O  O3  1  0.35266433  0.92809671  0.24999970  1
  O  O4  1  0.68139009  0.31771573  0.43183161  1
  O  O5  1  0.81861072  0.81771377  0.43183161  1
  O  O6  1  0.18138752  0.18228555  0.56816841  1
  O  O7  1  0.31861160  0.68228520  0.56816841  1
  O  O8  1  0.64733736  0.07190260  0.74999911  1
  O  O9  1  0.85266345  0.57190388  0.74999911  1
  O  O10  1  0.18138752  0.18228555  0.93183222  1
  O  O11  1  0.31861160  0.68228520  0.93183222  1
  Pu  Pu12  1  0.98163715  0.06500124  0.24999970  1
  Pu  Pu13  1  0.51836194  0.56500089  0.24999970  1
  Pu  Pu14  1  0.48163630  0.43499842  0.74999911  1
  Pu  Pu15  1  0.01836282  0.93499808  0.74999911  1
  Tl  Tl16  1  0.49999912  0.00000000  0.00000000  1
  Tl  Tl17  1  0.00000000  0.50000128  0.00000000  1
  Tl  Tl18  1  0.49999912  0.00000000  0.50000061  1
  Tl  Tl19  1  0.00000000  0.50000128  0.50000061  1
