# generated using pymatgen
data_PuTlO3
_symmetry_space_group_name_H-M   'P 1'
_cell_length_a   6.17000557
_cell_length_b   6.17000557
_cell_length_c   6.17000497
_cell_angle_alpha   59.79099282
_cell_angle_beta   59.79099282
_cell_angle_gamma   59.79099040
_symmetry_Int_Tables_number   1
_chemical_formula_structural   PuTlO3
_chemical_formula_sum   'Pu2 Tl2 O6'
_cell_volume   165.30120857
_cell_formula_units_Z   2
loop_
 _symmetry_equiv_pos_site_id
 _symmetry_equiv_pos_as_xyz
  1  'x, y, z'
loop_
 _atom_site_type_symbol
 _atom_site_label
 _atom_site_symmetry_multiplicity
 _atom_site_fract_x
 _atom_site_fract_y
 _atom_site_fract_z
 _atom_site_occupancy
  O  O0  1  0.75000020  0.25755594  0.24244307  1
  O  O1  1  0.74244566  0.75755336  0.24999908  1
  O  O2  1  0.24244551  0.74999748  0.25755621  1
  O  O3  1  0.75755340  0.25000143  0.74244327  1
  O  O4  1  0.25755326  0.24244555  0.75000040  1
  O  O5  1  0.24999965  0.74244392  0.75755453  1
  Pu  Pu6  1  0.00000000  0.00000000  0.00000000  1
  Pu  Pu7  1  0.50000012  0.50000012  0.50000040  1
  Tl  Tl8  1  0.24999940  0.24999940  0.24999954  1
  Tl  Tl9  1  0.74999952  0.74999952  0.74999994  1
