# generated using pymatgen
data_PuTlO3
_symmetry_space_group_name_H-M   'P 1'
_cell_length_a   5.88614887
_cell_length_b   6.12105523
_cell_length_c   8.57666023
_cell_angle_alpha   90.00000000
_cell_angle_beta   90.00000000
_cell_angle_gamma   90.00000000
_symmetry_Int_Tables_number   1
_chemical_formula_structural   PuTlO3
_chemical_formula_sum   'Pu4 Tl4 O12'
_cell_volume   309.01228505
_cell_formula_units_Z   4
loop_
 _symmetry_equiv_pos_site_id
 _symmetry_equiv_pos_as_xyz
  1  'x, y, z'
loop_
 _atom_site_type_symbol
 _atom_site_label
 _atom_site_symmetry_multiplicity
 _atom_site_fract_x
 _atom_site_fract_y
 _atom_site_fract_z
 _atom_site_occupancy
  O  O0  1  0.68313427  0.31025533  0.05796895  1
  O  O1  1  0.81686517  0.81025572  0.05796895  1
  O  O2  1  0.12023821  0.45146627  0.24999941  1
  O  O3  1  0.37976104  0.95146503  0.24999941  1
  O  O4  1  0.68313427  0.31025533  0.44203220  1
  O  O5  1  0.81686517  0.81025572  0.44203220  1
  O  O6  1  0.18313332  0.18974343  0.55796894  1
  O  O7  1  0.31686592  0.68974382  0.55796894  1
  O  O8  1  0.62023746  0.04853412  0.74999940  1
  O  O9  1  0.87976198  0.54853450  0.74999940  1
  O  O10  1  0.18313332  0.18974343  0.94203219  1
  O  O11  1  0.31686592  0.68974382  0.94203219  1
  Pu  Pu12  1  0.50000095  0.00000000  0.00000000  1
  Pu  Pu13  1  0.00000000  0.50000039  0.00000000  1
  Pu  Pu14  1  0.50000095  0.00000000  0.49999999  1
  Pu  Pu15  1  0.00000000  0.50000039  0.49999999  1
  Tl  Tl16  1  0.98990191  0.04664555  0.24999941  1
  Tl  Tl17  1  0.51009753  0.54664431  0.24999941  1
  Tl  Tl18  1  0.48990096  0.45335484  0.74999940  1
  Tl  Tl19  1  0.01009828  0.95335523  0.74999940  1
