# generated using pymatgen
data_RePbO3
_symmetry_space_group_name_H-M   'P 1'
_cell_length_a   5.57526009
_cell_length_b   5.66470422
_cell_length_c   7.92694940
_cell_angle_alpha   90.00000000
_cell_angle_beta   90.00000000
_cell_angle_gamma   90.00000000
_symmetry_Int_Tables_number   1
_chemical_formula_structural   RePbO3
_chemical_formula_sum   'Re4 Pb4 O12'
_cell_volume   250.35049615
_cell_formula_units_Z   4
loop_
 _symmetry_equiv_pos_site_id
 _symmetry_equiv_pos_as_xyz
  1  'x, y, z'
loop_
 _atom_site_type_symbol
 _atom_site_label
 _atom_site_symmetry_multiplicity
 _atom_site_fract_x
 _atom_site_fract_y
 _atom_site_fract_z
 _atom_site_occupancy
  O  O0  1  0.73255596  0.26678886  0.02039498  1
  O  O1  1  0.76744402  0.76678849  0.02039498  1
  O  O2  1  0.04198907  0.49939059  0.25000033  1
  O  O3  1  0.45801092  0.99939022  0.25000033  1
  O  O4  1  0.73255596  0.26678886  0.47960569  1
  O  O5  1  0.76744402  0.76678849  0.47960569  1
  O  O6  1  0.23255597  0.23321253  0.52039439  1
  O  O7  1  0.26744403  0.73321216  0.52039439  1
  O  O8  1  0.54198906  0.00061080  0.74999974  1
  O  O9  1  0.95801091  0.50061043  0.74999974  1
  O  O10  1  0.23255597  0.23321253  0.97960509  1
  O  O11  1  0.26744403  0.73321216  0.97960509  1
  Pb  Pb12  1  0.99782611  0.01124154  0.25000033  1
  Pb  Pb13  1  0.50217388  0.51124293  0.25000033  1
  Pb  Pb14  1  0.49782610  0.48875809  0.74999974  1
  Pb  Pb15  1  0.00217389  0.98875772  0.74999974  1
  Re  Re16  1  0.49999999  0.00000000  0.00000000  1
  Re  Re17  1  0.00000000  0.49999963  0.00000000  1
  Re  Re18  1  0.49999999  0.00000000  0.49999941  1
  Re  Re19  1  0.00000000  0.49999963  0.49999941  1
