# generated using pymatgen
data_AgBiO3
_symmetry_space_group_name_H-M   'P 1'
_cell_length_a   5.77967659
_cell_length_b   6.05007524
_cell_length_c   7.71878923
_cell_angle_alpha   90.00000000
_cell_angle_beta   90.00000000
_cell_angle_gamma   90.00000000
_symmetry_Int_Tables_number   1
_chemical_formula_structural   AgBiO3
_chemical_formula_sum   'Ag4 Bi4 O12'
_cell_volume   269.90659445
_cell_formula_units_Z   4
loop_
 _symmetry_equiv_pos_site_id
 _symmetry_equiv_pos_as_xyz
  1  'x, y, z'
loop_
 _atom_site_type_symbol
 _atom_site_label
 _atom_site_symmetry_multiplicity
 _atom_site_fract_x
 _atom_site_fract_y
 _atom_site_fract_z
 _atom_site_occupancy
  Ag  Ag0  1  0.50000029  0.00000000  0.00000000  1
  Ag  Ag1  1  0.00000000  0.50000039  0.00000000  1
  Ag  Ag2  1  0.50000029  0.00000000  0.49999940  1
  Ag  Ag3  1  0.00000000  0.50000039  0.49999940  1
  Bi  Bi4  1  0.99614224  0.04898286  0.25000035  1
  Bi  Bi5  1  0.50385864  0.54898326  0.25000035  1
  Bi  Bi6  1  0.49614195  0.45101753  0.74999975  1
  Bi  Bi7  1  0.00385835  0.95101793  0.74999975  1
  O  O8  1  0.62860092  0.30708048  0.05283860  1
  O  O9  1  0.87139824  0.80707922  0.05283860  1
  O  O10  1  0.14233841  0.43981767  0.25000035  1
  O  O11  1  0.35766188  0.93981806  0.25000035  1
  O  O12  1  0.62860092  0.30708048  0.44716080  1
  O  O13  1  0.87139824  0.80707922  0.44716080  1
  O  O14  1  0.12860235  0.19291991  0.55283800  1
  O  O15  1  0.37139794  0.69292031  0.55283800  1
  O  O16  1  0.64233871  0.06018107  0.74999975  1
  O  O17  1  0.85766218  0.56018146  0.74999975  1
  O  O18  1  0.12860235  0.19291991  0.94716150  1
  O  O19  1  0.37139794  0.69292031  0.94716150  1
