# generated using pymatgen
data_AgBiO3
_symmetry_space_group_name_H-M   'P 1'
_cell_length_a   5.71596779
_cell_length_b   5.83114831
_cell_length_c   8.17136202
_cell_angle_alpha   90.00000000
_cell_angle_beta   90.00000000
_cell_angle_gamma   90.00000000
_symmetry_Int_Tables_number   1
_chemical_formula_structural   AgBiO3
_chemical_formula_sum   'Ag4 Bi4 O12'
_cell_volume   272.35685559
_cell_formula_units_Z   4
loop_
 _symmetry_equiv_pos_site_id
 _symmetry_equiv_pos_as_xyz
  1  'x, y, z'
loop_
 _atom_site_type_symbol
 _atom_site_label
 _atom_site_symmetry_multiplicity
 _atom_site_fract_x
 _atom_site_fract_y
 _atom_site_fract_z
 _atom_site_occupancy
  Ag  Ag0  1  0.99191077  0.04073812  0.24999994  1
  Ag  Ag1  1  0.50808894  0.54073912  0.24999994  1
  Ag  Ag2  1  0.49190970  0.45926117  0.74999981  1
  Ag  Ag3  1  0.00808962  0.95926046  0.74999981  1
  Bi  Bi4  1  0.49999932  0.00000000  0.00000000  1
  Bi  Bi5  1  0.00000000  0.49999929  0.00000000  1
  Bi  Bi6  1  0.49999932  0.00000000  0.49999988  1
  Bi  Bi7  1  0.00000000  0.49999929  0.49999988  1
  O  O8  1  0.69003363  0.30571508  0.06467588  1
  O  O9  1  0.80996608  0.80571437  0.06467588  1
  O  O10  1  0.12108011  0.45150455  0.24999994  1
  O  O11  1  0.37891921  0.95150384  0.24999994  1
  O  O12  1  0.69003363  0.30571508  0.43532400  1
  O  O13  1  0.80996608  0.80571437  0.43532400  1
  O  O14  1  0.19003431  0.19428592  0.56467575  1
  O  O15  1  0.30996676  0.69428521  0.56467575  1
  O  O16  1  0.62107943  0.04849645  0.74999981  1
  O  O17  1  0.87892028  0.54849574  0.74999981  1
  O  O18  1  0.19003431  0.19428592  0.93532388  1
  O  O19  1  0.30996676  0.69428521  0.93532388  1
