# generated using pymatgen
data_KNiF3
_symmetry_space_group_name_H-M   'P 1'
_cell_length_a   6.25324400
_cell_length_b   6.51622200
_cell_length_c   8.98936300
_cell_angle_alpha   90.00000000
_cell_angle_beta   90.00000000
_cell_angle_gamma   90.00000000
_symmetry_Int_Tables_number   1
_chemical_formula_structural   KNiF3
_chemical_formula_sum   'K4 Ni4 F12'
_cell_volume   366.29430368
_cell_formula_units_Z   4
loop_
 _symmetry_equiv_pos_site_id
 _symmetry_equiv_pos_as_xyz
  1  'x, y, z'
loop_
 _atom_site_type_symbol
 _atom_site_label
 _atom_site_symmetry_multiplicity
 _atom_site_fract_x
 _atom_site_fract_y
 _atom_site_fract_z
 _atom_site_occupancy
  F  F0  1  0.68893633  0.30511034  0.05815697  1
  F  F1  1  0.81106263  0.80511182  0.05815697  1
  F  F2  1  0.11487346  0.46116202  0.25000045  1
  F  F3  1  0.38512556  0.96116350  0.25000045  1
  F  F4  1  0.68893633  0.30511034  0.44184394  1
  F  F5  1  0.81106263  0.80511182  0.44184394  1
  F  F6  1  0.18893731  0.19488931  0.55815655  1
  F  F7  1  0.31106361  0.69488896  0.55815655  1
  F  F8  1  0.61487438  0.03883764  0.75000003  1
  F  F9  1  0.88512648  0.53883729  0.75000003  1
  F  F10  1  0.18893731  0.19488931  0.94184352  1
  F  F11  1  0.31106361  0.69488896  0.94184352  1
  K  K12  1  0.98034002  0.06775361  0.25000045  1
  K  K13  1  0.51966084  0.56775326  0.25000045  1
  K  K14  1  0.48033910  0.43224787  0.75000003  1
  K  K15  1  0.01966182  0.93224752  0.75000003  1
  Ni  Ni16  1  0.50000092  0.00000000  0.00000000  1
  Ni  Ni17  1  0.00000000  0.49999965  0.00000000  1
  Ni  Ni18  1  0.50000092  0.00000000  0.49999958  1
  Ni  Ni19  1  0.00000000  0.49999965  0.49999958  1
