# generated using pymatgen
data_TlOsO3
_symmetry_space_group_name_H-M   'P 1'
_cell_length_a   4.20055900
_cell_length_b   4.20055900
_cell_length_c   4.20055900
_cell_angle_alpha   90.00000000
_cell_angle_beta   90.00000000
_cell_angle_gamma   90.00000000
_symmetry_Int_Tables_number   1
_chemical_formula_structural   TlOsO3
_chemical_formula_sum   'Tl1 Os1 O3'
_cell_volume   74.11758622
_cell_formula_units_Z   1
loop_
 _symmetry_equiv_pos_site_id
 _symmetry_equiv_pos_as_xyz
  1  'x, y, z'
loop_
 _atom_site_type_symbol
 _atom_site_label
 _atom_site_symmetry_multiplicity
 _atom_site_fract_x
 _atom_site_fract_y
 _atom_site_fract_z
 _atom_site_occupancy
  O  O0  1  0.50000012  0.50000012  0.00000000  1
  O  O1  1  0.50000012  0.00000000  0.50000012  1
  O  O2  1  0.00000000  0.50000012  0.50000012  1
  Os  Os3  1  0.00000000  0.00000000  0.00000000  1
  Tl  Tl4  1  0.50000012  0.50000012  0.50000012  1
