# generated using pymatgen
data_SiGeO3
_symmetry_space_group_name_H-M   'P 1'
_cell_length_a   5.03644393
_cell_length_b   5.05873245
_cell_length_c   7.32894194
_cell_angle_alpha   90.00000000
_cell_angle_beta   90.00000000
_cell_angle_gamma   90.00000000
_symmetry_Int_Tables_number   1
_chemical_formula_structural   SiGeO3
_chemical_formula_sum   'Si4 Ge4 O12'
_cell_volume   186.72694644
_cell_formula_units_Z   4
loop_
 _symmetry_equiv_pos_site_id
 _symmetry_equiv_pos_as_xyz
  1  'x, y, z'
loop_
 _atom_site_type_symbol
 _atom_site_label
 _atom_site_symmetry_multiplicity
 _atom_site_fract_x
 _atom_site_fract_y
 _atom_site_fract_z
 _atom_site_occupancy
  Ge  Ge0  1  0.03259244  0.05131720  0.24999925  1
  Ge  Ge1  1  0.46740717  0.55131597  0.24999925  1
  Ge  Ge2  1  0.53259205  0.44868354  0.74999912  1
  Ge  Ge3  1  0.96740877  0.94868429  0.74999912  1
  O  O4  1  0.22363199  0.22273168  0.00809257  1
  O  O5  1  0.27636960  0.72273045  0.00809257  1
  O  O6  1  0.00343893  0.48348673  0.24999925  1
  O  O7  1  0.49656068  0.98348550  0.24999925  1
  O  O8  1  0.22363199  0.22273168  0.49190866  1
  O  O9  1  0.27636960  0.72273045  0.49190866  1
  O  O10  1  0.72363160  0.27726906  0.50809108  1
  O  O11  1  0.77636921  0.77726981  0.50809108  1
  O  O12  1  0.50344053  0.01651204  0.74999912  1
  O  O13  1  0.99656029  0.51651279  0.74999912  1
  O  O14  1  0.72363160  0.27726906  0.99190853  1
  O  O15  1  0.77636921  0.77726981  0.99190853  1
  Si  Si16  1  0.49999961  0.00000000  0.00000000  1
  Si  Si17  1  0.00000000  0.50000075  0.00000000  1
  Si  Si18  1  0.49999961  0.00000000  0.49999987  1
  Si  Si19  1  0.00000000  0.50000075  0.49999987  1
