# generated using pymatgen
data_AgHgO3
_symmetry_space_group_name_H-M   'P 1'
_cell_length_a   5.54417808
_cell_length_b   5.70674884
_cell_length_c   7.99341689
_cell_angle_alpha   90.00000000
_cell_angle_beta   90.00000000
_cell_angle_gamma   90.00000000
_symmetry_Int_Tables_number   1
_chemical_formula_structural   AgHgO3
_chemical_formula_sum   'Ag4 Hg4 O12'
_cell_volume   252.90557016
_cell_formula_units_Z   4
loop_
 _symmetry_equiv_pos_site_id
 _symmetry_equiv_pos_as_xyz
  1  'x, y, z'
loop_
 _atom_site_type_symbol
 _atom_site_label
 _atom_site_symmetry_multiplicity
 _atom_site_fract_x
 _atom_site_fract_y
 _atom_site_fract_z
 _atom_site_occupancy
  Ag  Ag0  1  0.50000017  0.00000000  0.00000000  1
  Ag  Ag1  1  0.00000000  0.49999923  0.00000000  1
  Ag  Ag2  1  0.50000017  0.00000000  0.50000019  1
  Ag  Ag3  1  0.00000000  0.49999923  0.50000019  1
  Hg  Hg4  1  0.98564114  0.04972183  0.24999947  1
  Hg  Hg5  1  0.51435938  0.54972281  0.24999947  1
  Hg  Hg6  1  0.48564097  0.45027739  0.74999967  1
  Hg  Hg7  1  0.01435921  0.95027662  0.74999967  1
  O  O8  1  0.69428867  0.30311655  0.06515612  1
  O  O9  1  0.80571005  0.80311752  0.06515612  1
  O  O10  1  0.11428565  0.43302940  0.24999947  1
  O  O11  1  0.38571272  0.93302862  0.24999947  1
  O  O12  1  0.69428867  0.30311655  0.43484408  1
  O  O13  1  0.80571005  0.80311752  0.43484408  1
  O  O14  1  0.19428849  0.19688268  0.56515631  1
  O  O15  1  0.30571168  0.69688190  0.56515631  1
  O  O16  1  0.61428582  0.06697158  0.74999967  1
  O  O17  1  0.88571289  0.56697081  0.74999967  1
  O  O18  1  0.19428849  0.19688268  0.93484427  1
  O  O19  1  0.30571168  0.69688190  0.93484427  1
