# generated using pymatgen
data_GaAgO3
_symmetry_space_group_name_H-M   'P 1'
_cell_length_a   5.12985680
_cell_length_b   5.41901471
_cell_length_c   7.62756890
_cell_angle_alpha   90.00000000
_cell_angle_beta   90.00000000
_cell_angle_gamma   90.00000000
_symmetry_Int_Tables_number   1
_chemical_formula_structural   GaAgO3
_chemical_formula_sum   'Ga4 Ag4 O12'
_cell_volume   212.03702940
_cell_formula_units_Z   4
loop_
 _symmetry_equiv_pos_site_id
 _symmetry_equiv_pos_as_xyz
  1  'x, y, z'
loop_
 _atom_site_type_symbol
 _atom_site_label
 _atom_site_symmetry_multiplicity
 _atom_site_fract_x
 _atom_site_fract_y
 _atom_site_fract_z
 _atom_site_occupancy
  Ag  Ag0  1  0.97645221  0.07903466  0.24999971  1
  Ag  Ag1  1  0.52354873  0.57903515  0.24999971  1
  Ag  Ag2  1  0.47645190  0.42096398  0.75000044  1
  Ag  Ag3  1  0.02354842  0.92096447  0.75000044  1
  Ga  Ga4  1  0.50000031  0.00000000  0.00000000  1
  Ga  Ga5  1  0.00000000  0.50000049  0.00000000  1
  Ga  Ga6  1  0.50000031  0.00000000  0.49999942  1
  Ga  Ga7  1  0.00000000  0.50000049  0.49999942  1
  O  O8  1  0.70315413  0.29111750  0.07097150  1
  O  O9  1  0.79684680  0.79111799  0.07097150  1
  O  O10  1  0.13653987  0.43810547  0.24999971  1
  O  O11  1  0.36346044  0.93810596  0.24999971  1
  O  O12  1  0.70315413  0.29111750  0.42902792  1
  O  O13  1  0.79684680  0.79111799  0.42902792  1
  O  O14  1  0.20315382  0.20888299  0.57097092  1
  O  O15  1  0.29684649  0.70888163  0.57097092  1
  O  O16  1  0.63654019  0.06189502  0.75000044  1
  O  O17  1  0.86346075  0.56189366  0.75000044  1
  O  O18  1  0.20315382  0.20888299  0.92902865  1
  O  O19  1  0.29684649  0.70888163  0.92902865  1
