# generated using pymatgen
data_MnReO3
_symmetry_space_group_name_H-M   'P 1'
_cell_length_a   5.29434888
_cell_length_b   5.38108481
_cell_length_c   7.61414647
_cell_angle_alpha   90.00000000
_cell_angle_beta   90.00000000
_cell_angle_gamma   89.99466583
_symmetry_Int_Tables_number   1
_chemical_formula_structural   MnReO3
_chemical_formula_sum   'Mn4 Re4 O12'
_cell_volume   216.92200909
_cell_formula_units_Z   4
loop_
 _symmetry_equiv_pos_site_id
 _symmetry_equiv_pos_as_xyz
  1  'x, y, z'
loop_
 _atom_site_type_symbol
 _atom_site_label
 _atom_site_symmetry_multiplicity
 _atom_site_fract_x
 _atom_site_fract_y
 _atom_site_fract_z
 _atom_site_occupancy
  Mn  Mn0  1  0.98752217  0.05473355  0.25000044  1
  Mn  Mn1  1  0.51245343  0.55466848  0.25000044  1
  Mn  Mn2  1  0.48799454  0.44559313  0.75000002  1
  Mn  Mn3  1  0.01177929  0.94547051  0.75000002  1
  O  O4  1  0.81272437  0.80891140  0.06193997  1
  O  O5  1  0.68734346  0.30888253  0.06203716  1
  O  O6  1  0.13055697  0.44214624  0.25000044  1
  O  O7  1  0.36933995  0.94186119  0.25000044  1
  O  O8  1  0.68734346  0.30888253  0.43796242  1
  O  O9  1  0.81272437  0.80891140  0.43806092  1
  O  O10  1  0.31284576  0.69093122  0.56206825  1
  O  O11  1  0.18724386  0.19089679  0.56207088  1
  O  O12  1  0.63040538  0.05853611  0.75000002  1
  O  O13  1  0.86958879  0.55805220  0.75000002  1
  O  O14  1  0.18724386  0.19089679  0.93793047  1
  O  O15  1  0.31284576  0.69093122  0.93793179  1
  Re  Re16  1  0.49999917  0.00000000  0.00000000  1
  Re  Re17  1  0.00000000  0.49994008  0.00000000  1
  Re  Re18  1  0.49999917  0.00000000  0.49999432  1
  Re  Re19  1  0.00000000  0.49994008  0.50001271  1
