# generated using pymatgen
data_SrTcO3
_symmetry_space_group_name_H-M   'P 1'
_cell_length_a   5.58742225
_cell_length_b   5.59589163
_cell_length_c   7.91832442
_cell_angle_alpha   90.00000000
_cell_angle_beta   90.00000000
_cell_angle_gamma   90.00000000
_symmetry_Int_Tables_number   1
_chemical_formula_structural   SrTcO3
_chemical_formula_sum   'Sr4 Tc4 O12'
_cell_volume   247.57915690
_cell_formula_units_Z   4
loop_
 _symmetry_equiv_pos_site_id
 _symmetry_equiv_pos_as_xyz
  1  'x, y, z'
loop_
 _atom_site_type_symbol
 _atom_site_label
 _atom_site_symmetry_multiplicity
 _atom_site_fract_x
 _atom_site_fract_y
 _atom_site_fract_z
 _atom_site_occupancy
  O  O0  1  0.71848159  0.28125991  0.02634143  1
  O  O1  1  0.78151960  0.78125887  0.02634143  1
  O  O2  1  0.05100742  0.49293306  0.24999986  1
  O  O3  1  0.44899238  0.99293560  0.24999986  1
  O  O4  1  0.71848159  0.28125991  0.47365955  1
  O  O5  1  0.78151960  0.78125887  0.47365955  1
  O  O6  1  0.21848000  0.21874083  0.52633989  1
  O  O7  1  0.28151980  0.71874158  0.52633989  1
  O  O8  1  0.55100722  0.00706590  0.74999958  1
  O  O9  1  0.94899218  0.50706486  0.74999958  1
  O  O10  1  0.21848000  0.21874083  0.97365927  1
  O  O11  1  0.28151980  0.71874158  0.97365927  1
  Sr  Sr12  1  0.99716466  0.02290252  0.24999986  1
  Sr  Sr13  1  0.50283474  0.52290148  0.24999986  1
  Sr  Sr14  1  0.49716486  0.47709644  0.74999958  1
  Sr  Sr15  1  0.00283494  0.97709719  0.74999958  1
  Tc  Tc16  1  0.49999980  0.00000000  0.00000000  1
  Tc  Tc17  1  0.00000000  0.49999896  0.00000000  1
  Tc  Tc18  1  0.49999980  0.00000000  0.50000098  1
  Tc  Tc19  1  0.00000000  0.49999896  0.50000098  1
