# generated using pymatgen
data_LuMnO3
_symmetry_space_group_name_H-M   'P 1'
_cell_length_a   5.24176200
_cell_length_b   5.77488500
_cell_length_c   7.44398600
_cell_angle_alpha   90.00000000
_cell_angle_beta   90.00000000
_cell_angle_gamma   90.00000000
_symmetry_Int_Tables_number   1
_chemical_formula_structural   LuMnO3
_chemical_formula_sum   'Lu4 Mn4 O12'
_cell_volume   225.33371974
_cell_formula_units_Z   4
loop_
 _symmetry_equiv_pos_site_id
 _symmetry_equiv_pos_as_xyz
  1  'x, y, z'
loop_
 _atom_site_type_symbol
 _atom_site_label
 _atom_site_symmetry_multiplicity
 _atom_site_fract_x
 _atom_site_fract_y
 _atom_site_fract_z
 _atom_site_occupancy
  Lu  Lu0  1  0.02072400  0.91652300  0.75000000  1
  Lu  Lu1  1  0.52072400  0.58347700  0.25000000  1
  Lu  Lu2  1  0.47927600  0.41652300  0.75000000  1
  Lu  Lu3  1  0.97927600  0.08347700  0.25000000  1
  Mn  Mn4  1  0.50000000  0.00000000  0.50000000  1
  Mn  Mn5  1  0.00000000  0.50000000  0.50000000  1
  Mn  Mn6  1  0.00000000  0.50000000  0.00000000  1
  Mn  Mn7  1  0.50000000  0.00000000  0.00000000  1
  O  O8  1  0.69669100  0.32736700  0.43785700  1
  O  O9  1  0.19669100  0.17263300  0.56214300  1
  O  O10  1  0.80330900  0.82736700  0.06214300  1
  O  O11  1  0.30330900  0.67263300  0.93785700  1
  O  O12  1  0.30330900  0.67263300  0.56214300  1
  O  O13  1  0.80330900  0.82736700  0.43785700  1
  O  O14  1  0.19669100  0.17263300  0.93785700  1
  O  O15  1  0.69669100  0.32736700  0.06214300  1
  O  O16  1  0.13091400  0.44967800  0.25000000  1
  O  O17  1  0.63091400  0.05032200  0.75000000  1
  O  O18  1  0.36908600  0.94967800  0.25000000  1
  O  O19  1  0.86908600  0.55032200  0.75000000  1
