# generated using pymatgen
data_CrHgO3
_symmetry_space_group_name_H-M   'P 1'
_cell_length_a   5.42619480
_cell_length_b   5.47778719
_cell_length_c   7.54258449
_cell_angle_alpha   90.00000000
_cell_angle_beta   90.00000000
_cell_angle_gamma   90.00000000
_symmetry_Int_Tables_number   1
_chemical_formula_structural   CrHgO3
_chemical_formula_sum   'Cr4 Hg4 O12'
_cell_volume   224.19231473
_cell_formula_units_Z   4
loop_
 _symmetry_equiv_pos_site_id
 _symmetry_equiv_pos_as_xyz
  1  'x, y, z'
loop_
 _atom_site_type_symbol
 _atom_site_label
 _atom_site_symmetry_multiplicity
 _atom_site_fract_x
 _atom_site_fract_y
 _atom_site_fract_z
 _atom_site_occupancy
  Cr  Cr0  1  0.50000048  0.00000000  0.00000000  1
  Cr  Cr1  1  0.00000000  0.49999934  0.00000000  1
  Cr  Cr2  1  0.50000048  0.00000000  0.49999970  1
  Cr  Cr3  1  0.00000000  0.49999934  0.49999970  1
  Hg  Hg4  1  0.00341123  0.01157767  0.25000051  1
  Hg  Hg5  1  0.49658741  0.51157701  0.25000051  1
  Hg  Hg6  1  0.50341171  0.48842350  0.75000022  1
  Hg  Hg7  1  0.99658877  0.98842284  0.75000022  1
  O  O8  1  0.68066852  0.31808282  0.02290064  1
  O  O9  1  0.81933107  0.81808216  0.02290064  1
  O  O10  1  0.05577942  0.48056266  0.25000051  1
  O  O11  1  0.44421922  0.98056201  0.25000051  1
  O  O12  1  0.68066852  0.31808282  0.47709906  1
  O  O13  1  0.81933107  0.81808216  0.47709906  1
  O  O14  1  0.18066804  0.18191835  0.52290034  1
  O  O15  1  0.31933244  0.68191769  0.52290034  1
  O  O16  1  0.55577990  0.01943851  0.75000022  1
  O  O17  1  0.94421969  0.51943785  0.75000022  1
  O  O18  1  0.18066804  0.18191835  0.97710009  1
  O  O19  1  0.31933244  0.68191769  0.97710009  1
