# generated using pymatgen
data_CdNiO3
_symmetry_space_group_name_H-M   'P 1'
_cell_length_a   5.20592486
_cell_length_b   5.37237502
_cell_length_c   7.36888911
_cell_angle_alpha   90.00000000
_cell_angle_beta   90.00000000
_cell_angle_gamma   90.00000000
_symmetry_Int_Tables_number   1
_chemical_formula_structural   CdNiO3
_chemical_formula_sum   'Cd4 Ni4 O12'
_cell_volume   206.09442185
_cell_formula_units_Z   4
loop_
 _symmetry_equiv_pos_site_id
 _symmetry_equiv_pos_as_xyz
  1  'x, y, z'
loop_
 _atom_site_type_symbol
 _atom_site_label
 _atom_site_symmetry_multiplicity
 _atom_site_fract_x
 _atom_site_fract_y
 _atom_site_fract_z
 _atom_site_occupancy
  Cd  Cd0  1  0.98618788  0.05423858  0.24999969  1
  Cd  Cd1  1  0.51381264  0.55423905  0.24999969  1
  Cd  Cd2  1  0.48618643  0.44576188  0.75000043  1
  Cd  Cd3  1  0.01381311  0.94576235  0.75000043  1
  Ni  Ni4  1  0.50000145  0.00000000  0.00000000  1
  Ni  Ni5  1  0.00000000  0.50000046  0.00000000  1
  Ni  Ni6  1  0.50000145  0.00000000  0.50000074  1
  Ni  Ni7  1  0.00000000  0.50000046  0.50000074  1
  O  O8  1  0.69962977  0.29756113  0.05087470  1
  O  O9  1  0.80037075  0.79756160  0.05087470  1
  O  O10  1  0.09838213  0.46626492  0.24999969  1
  O  O11  1  0.40161740  0.96626352  0.24999969  1
  O  O12  1  0.69962977  0.29756113  0.44912604  1
  O  O13  1  0.80037075  0.79756160  0.44912604  1
  O  O14  1  0.19962831  0.20243747  0.55087272  1
  O  O15  1  0.30036930  0.70243793  0.55087272  1
  O  O16  1  0.59838167  0.03373555  0.75000043  1
  O  O17  1  0.90161885  0.53373601  0.75000043  1
  O  O18  1  0.19962831  0.20243747  0.94912678  1
  O  O19  1  0.30036930  0.70243793  0.94912678  1
