# generated using pymatgen
data_TaHgO3
_symmetry_space_group_name_H-M   'P 1'
_cell_length_a   5.66754153
_cell_length_b   5.66754153
_cell_length_c   5.66754153
_cell_angle_alpha   60.06256111
_cell_angle_beta   60.06256111
_cell_angle_gamma   60.06256108
_symmetry_Int_Tables_number   1
_chemical_formula_structural   TaHgO3
_chemical_formula_sum   'Ta2 Hg2 O6'
_cell_volume   128.90936450
_cell_formula_units_Z   2
loop_
 _symmetry_equiv_pos_site_id
 _symmetry_equiv_pos_as_xyz
  1  'x, y, z'
loop_
 _atom_site_type_symbol
 _atom_site_label
 _atom_site_symmetry_multiplicity
 _atom_site_fract_x
 _atom_site_fract_y
 _atom_site_fract_z
 _atom_site_occupancy
  Hg  Hg0  1  0.25000041  0.25000041  0.25000041  1
  Hg  Hg1  1  0.75000050  0.75000050  0.75000050  1
  O  O2  1  0.25272466  0.75000118  0.24727547  1
  O  O3  1  0.75272518  0.74727470  0.25000152  1
  O  O4  1  0.74999917  0.24727569  0.25272645  1
  O  O5  1  0.25000174  0.75272521  0.74727445  1
  O  O6  1  0.24727572  0.25272620  0.74999938  1
  O  O7  1  0.74727625  0.24999972  0.75272543  1
  Ta  Ta8  1  0.00000000  0.00000000  0.00000000  1
  Ta  Ta9  1  0.50000009  0.50000009  0.50000009  1
