# generated using pymatgen
data_CdAsO3
_symmetry_space_group_name_H-M   'P 1'
_cell_length_a   5.37794905
_cell_length_b   5.52004475
_cell_length_c   7.72198603
_cell_angle_alpha   90.00000000
_cell_angle_beta   90.00000000
_cell_angle_gamma   90.00000000
_symmetry_Int_Tables_number   1
_chemical_formula_structural   CdAsO3
_chemical_formula_sum   'Cd4 As4 O12'
_cell_volume   229.23888833
_cell_formula_units_Z   4
loop_
 _symmetry_equiv_pos_site_id
 _symmetry_equiv_pos_as_xyz
  1  'x, y, z'
loop_
 _atom_site_type_symbol
 _atom_site_label
 _atom_site_symmetry_multiplicity
 _atom_site_fract_x
 _atom_site_fract_y
 _atom_site_fract_z
 _atom_site_occupancy
  As  As0  1  0.49999916  0.00000000  0.00000000  1
  As  As1  1  0.00000000  0.49999957  0.00000000  1
  As  As2  1  0.49999916  0.00000000  0.49999961  1
  As  As3  1  0.00000000  0.49999957  0.49999961  1
  Cd  Cd4  1  0.98759768  0.04354313  0.25000045  1
  Cd  Cd5  1  0.51240166  0.54354270  0.25000045  1
  Cd  Cd6  1  0.48759852  0.45645644  0.75000006  1
  Cd  Cd7  1  0.01240250  0.95645783  0.75000006  1
  O  O8  1  0.70326252  0.29261538  0.05336321  1
  O  O9  1  0.79673681  0.79261495  0.05336321  1
  O  O10  1  0.10159821  0.46092018  0.25000045  1
  O  O11  1  0.39840095  0.96091975  0.25000045  1
  O  O12  1  0.70326252  0.29261538  0.44663769  1
  O  O13  1  0.79673681  0.79261495  0.44663769  1
  O  O14  1  0.20326150  0.20738600  0.55336282  1
  O  O15  1  0.29673766  0.70738557  0.55336282  1
  O  O16  1  0.60159923  0.03908120  0.75000006  1
  O  O17  1  0.89840011  0.53908078  0.75000006  1
  O  O18  1  0.20326150  0.20738600  0.94663730  1
  O  O19  1  0.29673766  0.70738557  0.94663730  1
