# generated using pymatgen
data_TiTlO3
_symmetry_space_group_name_H-M   'P 1'
_cell_length_a   5.51330344
_cell_length_b   5.57018984
_cell_length_c   7.81483581
_cell_angle_alpha   90.00000000
_cell_angle_beta   90.00000000
_cell_angle_gamma   90.00000000
_symmetry_Int_Tables_number   1
_chemical_formula_structural   TiTlO3
_chemical_formula_sum   'Ti4 Tl4 O12'
_cell_volume   239.99475486
_cell_formula_units_Z   4
loop_
 _symmetry_equiv_pos_site_id
 _symmetry_equiv_pos_as_xyz
  1  'x, y, z'
loop_
 _atom_site_type_symbol
 _atom_site_label
 _atom_site_symmetry_multiplicity
 _atom_site_fract_x
 _atom_site_fract_y
 _atom_site_fract_z
 _atom_site_occupancy
  O  O0  1  0.72063692  0.27885226  0.02963850  1
  O  O1  1  0.77936215  0.77885317  0.02963850  1
  O  O2  1  0.05883406  0.49509085  0.25000013  1
  O  O3  1  0.44116563  0.99509176  0.25000013  1
  O  O4  1  0.72063692  0.27885226  0.47036177  1
  O  O5  1  0.77936215  0.77885317  0.47036177  1
  O  O6  1  0.22063723  0.22114686  0.52963877  1
  O  O7  1  0.27936246  0.72114777  0.52963877  1
  O  O8  1  0.55883374  0.00490827  0.75000040  1
  O  O9  1  0.94116714  0.50490918  0.75000040  1
  O  O10  1  0.22063723  0.22114686  0.97036204  1
  O  O11  1  0.27936246  0.72114777  0.97036204  1
  Ti  Ti12  1  0.49999969  0.00000000  0.00000000  1
  Ti  Ti13  1  0.00000000  0.49999912  0.00000000  1
  Ti  Ti14  1  0.49999969  0.00000000  0.50000027  1
  Ti  Ti15  1  0.00000000  0.49999912  0.50000027  1
  Tl  Tl16  1  0.99646973  0.01862773  0.25000013  1
  Tl  Tl17  1  0.50353115  0.51862864  0.25000013  1
  Tl  Tl18  1  0.49646823  0.48137139  0.75000040  1
  Tl  Tl19  1  0.00353146  0.98137230  0.75000040  1
