# generated using pymatgen
data_KSbO3
_symmetry_space_group_name_H-M   'P 1'
_cell_length_a   6.38678700
_cell_length_b   9.10367800
_cell_length_c   6.47127400
_cell_angle_alpha   90.00000000
_cell_angle_beta   90.00000000
_cell_angle_gamma   90.00000000
_symmetry_Int_Tables_number   1
_chemical_formula_structural   KSbO3
_chemical_formula_sum   'K4 Sb4 O12'
_cell_volume   376.26091690
_cell_formula_units_Z   4
loop_
 _symmetry_equiv_pos_site_id
 _symmetry_equiv_pos_as_xyz
  1  'x, y, z'
loop_
 _atom_site_type_symbol
 _atom_site_label
 _atom_site_symmetry_multiplicity
 _atom_site_fract_x
 _atom_site_fract_y
 _atom_site_fract_z
 _atom_site_occupancy
  K  K0  1  0.00866611  0.00000000  0.95776982  1
  K  K1  1  0.49133323  0.00000000  0.45777023  1
  K  K2  1  0.50866730  0.50000000  0.54222896  1
  K  K3  1  0.99133256  0.50000000  0.04222937  1
  O  O4  1  0.09338659  0.50000000  0.47313816  1
  O  O5  1  0.19950199  0.20204314  0.20238919  1
  O  O6  1  0.19950199  0.79795686  0.20238919  1
  O  O7  1  0.30049735  0.20204314  0.70238878  1
  O  O8  1  0.30049735  0.79795686  0.70238878  1
  O  O9  1  0.40661275  0.50000000  0.97313775  1
  O  O10  1  0.59338592  0.00000000  0.02686144  1
  O  O11  1  0.69950317  0.70204356  0.29761224  1
  O  O12  1  0.69950317  0.29795644  0.29761224  1
  O  O13  1  0.80049853  0.70204356  0.79761183  1
  O  O14  1  0.80049853  0.29795644  0.79761183  1
  O  O15  1  0.90661393  0.00000000  0.52686103  1
  Sb  Sb16  1  0.00000000  0.74999999  0.49999959  1
  Sb  Sb17  1  0.00000000  0.25000001  0.49999959  1
  Sb  Sb18  1  0.49999933  0.74999999  0.00000000  1
  Sb  Sb19  1  0.49999933  0.25000001  0.00000000  1
