# generated using pymatgen
data_ZnReO3
_symmetry_space_group_name_H-M   'P 1'
_cell_length_a   5.36204976
_cell_length_b   5.14457146
_cell_length_c   7.49980068
_cell_angle_alpha   90.00000000
_cell_angle_beta   90.00000000
_cell_angle_gamma   90.00000000
_symmetry_Int_Tables_number   1
_chemical_formula_structural   ZnReO3
_chemical_formula_sum   'Zn4 Re4 O12'
_cell_volume   206.88536276
_cell_formula_units_Z   4
loop_
 _symmetry_equiv_pos_site_id
 _symmetry_equiv_pos_as_xyz
  1  'x, y, z'
loop_
 _atom_site_type_symbol
 _atom_site_label
 _atom_site_symmetry_multiplicity
 _atom_site_fract_x
 _atom_site_fract_y
 _atom_site_fract_z
 _atom_site_occupancy
  O  O0  1  0.68161434  0.32398423  0.06748179  1
  O  O1  1  0.81838480  0.82398506  0.06748179  1
  O  O2  1  0.13494280  0.48236671  0.24999998  1
  O  O3  1  0.36505629  0.98236754  0.24999998  1
  O  O4  1  0.68161434  0.32398423  0.43251816  1
  O  O5  1  0.81838480  0.82398506  0.43251816  1
  O  O6  1  0.18161338  0.17601466  0.56748175  1
  O  O7  1  0.31838571  0.67601549  0.56748175  1
  O  O8  1  0.63494375  0.01763218  0.74999993  1
  O  O9  1  0.86505725  0.51763495  0.74999993  1
  O  O10  1  0.18161338  0.17601466  0.93251945  1
  O  O11  1  0.31838571  0.67601549  0.93251945  1
  Re  Re12  1  0.50000096  0.00000000  0.00000000  1
  Re  Re13  1  0.00000000  0.49999889  0.00000000  1
  Re  Re14  1  0.50000096  0.00000000  0.49999995  1
  Re  Re15  1  0.00000000  0.49999889  0.49999995  1
  Zn  Zn16  1  0.99493668  0.05082639  0.24999998  1
  Zn  Zn17  1  0.50506245  0.55082722  0.24999998  1
  Zn  Zn18  1  0.49493573  0.44917444  0.74999993  1
  Zn  Zn19  1  0.00506336  0.94917332  0.74999993  1
