# generated using pymatgen
data_TlIrO3
_symmetry_space_group_name_H-M   'P 1'
_cell_length_a   5.51508926
_cell_length_b   5.58106387
_cell_length_c   7.86312597
_cell_angle_alpha   90.00000000
_cell_angle_beta   90.00000000
_cell_angle_gamma   90.00000000
_symmetry_Int_Tables_number   1
_chemical_formula_structural   TlIrO3
_chemical_formula_sum   'Tl4 Ir4 O12'
_cell_volume   242.02753156
_cell_formula_units_Z   4
loop_
 _symmetry_equiv_pos_site_id
 _symmetry_equiv_pos_as_xyz
  1  'x, y, z'
loop_
 _atom_site_type_symbol
 _atom_site_label
 _atom_site_symmetry_multiplicity
 _atom_site_fract_x
 _atom_site_fract_y
 _atom_site_fract_z
 _atom_site_occupancy
  Ir  Ir0  1  0.49999916  0.00000000  0.00000000  1
  Ir  Ir1  1  0.00000000  0.49999965  0.00000000  1
  Ir  Ir2  1  0.49999916  0.00000000  0.49999962  1
  Ir  Ir3  1  0.00000000  0.49999965  0.49999962  1
  O  O4  1  0.72750590  0.27176001  0.06631841  1
  O  O5  1  0.77249339  0.77175967  0.06631841  1
  O  O6  1  0.10760479  0.44064359  0.24999981  1
  O  O7  1  0.39239437  0.94064324  0.24999981  1
  O  O8  1  0.72750590  0.27176001  0.43368121  1
  O  O9  1  0.77249339  0.77175967  0.43368121  1
  O  O10  1  0.22750674  0.22823964  0.56631803  1
  O  O11  1  0.27249423  0.72824108  0.56631803  1
  O  O12  1  0.60760576  0.05935607  0.74999943  1
  O  O13  1  0.89239535  0.55935572  0.74999943  1
  O  O14  1  0.22750674  0.22823964  0.93368210  1
  O  O15  1  0.27249423  0.72824108  0.93368210  1
  Tl  Tl16  1  0.98718438  0.02655408  0.24999981  1
  Tl  Tl17  1  0.51281491  0.52655373  0.24999981  1
  Tl  Tl18  1  0.48718522  0.47344558  0.74999943  1
  Tl  Tl19  1  0.01281394  0.97344523  0.74999943  1
