# generated using pymatgen
data_BaAgO3
_symmetry_space_group_name_H-M   'P 1'
_cell_length_a   5.89173101
_cell_length_b   5.84895431
_cell_length_c   8.36167699
_cell_angle_alpha   90.00000000
_cell_angle_beta   90.00000000
_cell_angle_gamma   90.00000000
_symmetry_Int_Tables_number   1
_chemical_formula_structural   BaAgO3
_chemical_formula_sum   'Ba4 Ag4 O12'
_cell_volume   288.14728134
_cell_formula_units_Z   4
loop_
 _symmetry_equiv_pos_site_id
 _symmetry_equiv_pos_as_xyz
  1  'x, y, z'
loop_
 _atom_site_type_symbol
 _atom_site_label
 _atom_site_symmetry_multiplicity
 _atom_site_fract_x
 _atom_site_fract_y
 _atom_site_fract_z
 _atom_site_occupancy
  Ag  Ag0  1  0.50000076  0.00000000  0.00000000  1
  Ag  Ag1  1  0.00000000  0.50000049  0.00000000  1
  Ag  Ag2  1  0.50000076  0.00000000  0.49999898  1
  Ag  Ag3  1  0.00000000  0.50000049  0.49999898  1
  Ba  Ba4  1  0.99787821  0.01541643  0.25000009  1
  Ba  Ba5  1  0.50212238  0.51541521  0.25000009  1
  Ba  Ba6  1  0.49787745  0.48458406  0.75000027  1
  Ba  Ba7  1  0.00212162  0.98458454  0.75000027  1
  O  O8  1  0.72828342  0.27267267  0.02325132  1
  O  O9  1  0.77171717  0.77267145  0.02325132  1
  O  O10  1  0.45914520  0.00573436  0.25000009  1
  O  O11  1  0.04085557  0.50573484  0.25000009  1
  O  O12  1  0.72828342  0.27267267  0.47674767  1
  O  O13  1  0.77171717  0.77267145  0.47674767  1
  O  O14  1  0.22828266  0.22732781  0.52325150  1
  O  O15  1  0.27171811  0.72732830  0.52325150  1
  O  O16  1  0.95914426  0.49426442  0.75000027  1
  O  O17  1  0.54085633  0.99426490  0.75000027  1
  O  O18  1  0.22828266  0.22732781  0.97674904  1
  O  O19  1  0.27171811  0.72732830  0.97674904  1
