# generated using pymatgen
data_VCuO3
_symmetry_space_group_name_H-M   'P 1'
_cell_length_a   4.94877793
_cell_length_b   5.13401994
_cell_length_c   7.46259430
_cell_angle_alpha   90.00000000
_cell_angle_beta   90.00000000
_cell_angle_gamma   90.00000000
_symmetry_Int_Tables_number   1
_chemical_formula_structural   VCuO3
_chemical_formula_sum   'V4 Cu4 O12'
_cell_volume   189.60306322
_cell_formula_units_Z   4
loop_
 _symmetry_equiv_pos_site_id
 _symmetry_equiv_pos_as_xyz
  1  'x, y, z'
loop_
 _atom_site_type_symbol
 _atom_site_label
 _atom_site_symmetry_multiplicity
 _atom_site_fract_x
 _atom_site_fract_y
 _atom_site_fract_z
 _atom_site_occupancy
  Cu  Cu0  1  0.00230562  0.06314155  0.25000019  1
  Cu  Cu1  1  0.49769459  0.56314351  0.25000019  1
  Cu  Cu2  1  0.50230583  0.43685650  0.75000057  1
  Cu  Cu3  1  0.99769438  0.93685846  0.75000057  1
  O  O4  1  0.67525358  0.30075263  0.07002927  1
  O  O5  1  0.82474301  0.80075069  0.07002927  1
  O  O6  1  0.13240036  0.43447630  0.25000019  1
  O  O7  1  0.36759984  0.93447436  0.25000019  1
  O  O8  1  0.67525358  0.30075263  0.42996978  1
  O  O9  1  0.82474301  0.80075069  0.42996978  1
  O  O10  1  0.17525539  0.19925127  0.57002965  1
  O  O11  1  0.32474280  0.69924933  0.57002965  1
  O  O12  1  0.63240057  0.06552565  0.75000057  1
  O  O13  1  0.86759803  0.56552371  0.75000057  1
  O  O14  1  0.17525539  0.19925127  0.92996882  1
  O  O15  1  0.32474280  0.69924933  0.92996882  1
  V  V16  1  0.49999819  0.00000000  0.00000000  1
  V  V17  1  0.00000000  0.50000001  0.00000000  1
  V  V18  1  0.49999819  0.00000000  0.50000038  1
  V  V19  1  0.00000000  0.50000001  0.50000038  1
