# generated using pymatgen
data_LaEuO3
_symmetry_space_group_name_H-M   'P 1'
_cell_length_a   5.97864450
_cell_length_b   6.23167911
_cell_length_c   8.69687795
_cell_angle_alpha   90.00000000
_cell_angle_beta   90.00000000
_cell_angle_gamma   90.00000000
_symmetry_Int_Tables_number   1
_chemical_formula_structural   LaEuO3
_chemical_formula_sum   'La4 Eu4 O12'
_cell_volume   324.01952993
_cell_formula_units_Z   4
loop_
 _symmetry_equiv_pos_site_id
 _symmetry_equiv_pos_as_xyz
  1  'x, y, z'
loop_
 _atom_site_type_symbol
 _atom_site_label
 _atom_site_symmetry_multiplicity
 _atom_site_fract_x
 _atom_site_fract_y
 _atom_site_fract_z
 _atom_site_occupancy
  Eu  Eu0  1  0.97410709  0.05821064  0.25000006  1
  Eu  Eu1  1  0.52589345  0.55821071  0.25000006  1
  Eu  Eu2  1  0.47410747  0.44178944  0.75000018  1
  Eu  Eu3  1  0.02589216  0.94178790  0.75000018  1
  La  La4  1  0.50000130  0.00000000  0.00000000  1
  La  La5  1  0.00000000  0.50000007  0.00000000  1
  La  La6  1  0.50000130  0.00000000  0.50000012  1
  La  La7  1  0.00000000  0.50000007  0.50000012  1
  O  O8  1  0.69791907  0.30303550  0.07930547  1
  O  O9  1  0.80207980  0.80303557  0.07930547  1
  O  O10  1  0.14890164  0.42128453  0.25000006  1
  O  O11  1  0.35109965  0.92128460  0.25000006  1
  O  O12  1  0.69791907  0.30303550  0.42069350  1
  O  O13  1  0.80207980  0.80303557  0.42069350  1
  O  O14  1  0.19791944  0.19696297  0.57930559  1
  O  O15  1  0.30208018  0.69696464  0.57930559  1
  O  O16  1  0.64890127  0.07871554  0.75000018  1
  O  O17  1  0.85109928  0.57871561  0.75000018  1
  O  O18  1  0.19791944  0.19696297  0.92069362  1
  O  O19  1  0.30208018  0.69696464  0.92069362  1
