# generated using pymatgen
data_MnMoO3
_symmetry_space_group_name_H-M   'P 1'
_cell_length_a   5.28767930
_cell_length_b   5.43049724
_cell_length_c   7.63665097
_cell_angle_alpha   90.00000000
_cell_angle_beta   90.00000000
_cell_angle_gamma   90.00000000
_symmetry_Int_Tables_number   1
_chemical_formula_structural   MnMoO3
_chemical_formula_sum   'Mn4 Mo4 O12'
_cell_volume   219.28435433
_cell_formula_units_Z   4
loop_
 _symmetry_equiv_pos_site_id
 _symmetry_equiv_pos_as_xyz
  1  'x, y, z'
loop_
 _atom_site_type_symbol
 _atom_site_label
 _atom_site_symmetry_multiplicity
 _atom_site_fract_x
 _atom_site_fract_y
 _atom_site_fract_z
 _atom_site_occupancy
  Mn  Mn0  1  0.98651974  0.05852319  0.24999964  1
  Mn  Mn1  1  0.51348046  0.55852344  0.24999964  1
  Mn  Mn2  1  0.48652156  0.44147891  0.75000023  1
  Mn  Mn3  1  0.01348039  0.94147732  0.75000023  1
  Mo  Mo4  1  0.49999817  0.00000000  0.00000000  1
  Mo  Mo5  1  0.00000000  0.49999841  0.00000000  1
  Mo  Mo6  1  0.49999817  0.00000000  0.50000059  1
  Mo  Mo7  1  0.00000000  0.49999841  0.50000059  1
  O  O8  1  0.68470302  0.30960885  0.06286133  1
  O  O9  1  0.81529718  0.80960726  0.06286133  1
  O  O10  1  0.12598533  0.45402472  0.24999964  1
  O  O11  1  0.37401285  0.95402314  0.24999964  1
  O  O12  1  0.68470302  0.30960885  0.43713796  1
  O  O13  1  0.81529718  0.80960726  0.43713796  1
  O  O14  1  0.18470296  0.19039141  0.56286192  1
  O  O15  1  0.31529711  0.69039350  0.56286192  1
  O  O16  1  0.62598728  0.04597553  0.75000023  1
  O  O17  1  0.87401291  0.54597394  0.75000023  1
  O  O18  1  0.18470296  0.19039141  0.93713855  1
  O  O19  1  0.31529711  0.69039350  0.93713855  1
