# generated using pymatgen
data_EuBiO3
_symmetry_space_group_name_H-M   'P 1'
_cell_length_a   5.80721183
_cell_length_b   6.07120720
_cell_length_c   8.37329530
_cell_angle_alpha   90.00000000
_cell_angle_beta   90.00000000
_cell_angle_gamma   90.00000000
_symmetry_Int_Tables_number   1
_chemical_formula_structural   EuBiO3
_chemical_formula_sum   'Eu4 Bi4 O12'
_cell_volume   295.21548268
_cell_formula_units_Z   4
loop_
 _symmetry_equiv_pos_site_id
 _symmetry_equiv_pos_as_xyz
  1  'x, y, z'
loop_
 _atom_site_type_symbol
 _atom_site_label
 _atom_site_symmetry_multiplicity
 _atom_site_fract_x
 _atom_site_fract_y
 _atom_site_fract_z
 _atom_site_occupancy
  Bi  Bi0  1  0.50000070  0.00000000  0.00000000  1
  Bi  Bi1  1  0.00000000  0.49999941  0.00000000  1
  Bi  Bi2  1  0.50000070  0.00000000  0.50000028  1
  Bi  Bi3  1  0.00000000  0.49999941  0.50000028  1
  Eu  Eu4  1  0.98081320  0.05906404  0.24999954  1
  Eu  Eu5  1  0.51918547  0.55906509  0.24999954  1
  Eu  Eu6  1  0.48081249  0.44093537  0.74999982  1
  Eu  Eu7  1  0.01918649  0.94093643  0.74999982  1
  O  O8  1  0.69545595  0.30102580  0.06412410  1
  O  O9  1  0.80454444  0.80102521  0.06412410  1
  O  O10  1  0.12209990  0.44886625  0.24999954  1
  O  O11  1  0.37790080  0.94886730  0.24999954  1
  O  O12  1  0.69545595  0.30102580  0.43587618  1
  O  O13  1  0.80454444  0.80102521  0.43587618  1
  O  O14  1  0.19545697  0.19897361  0.56412438  1
  O  O15  1  0.30454374  0.69897466  0.56412438  1
  O  O16  1  0.62209888  0.05113316  0.74999982  1
  O  O17  1  0.87790150  0.55113421  0.74999982  1
  O  O18  1  0.19545697  0.19897361  0.93587527  1
  O  O19  1  0.30454374  0.69897466  0.93587527  1
