# generated using pymatgen
data_YRuO3
_symmetry_space_group_name_H-M   'P 1'
_cell_length_a   5.11129000
_cell_length_b   5.31630600
_cell_length_c   7.32511700
_cell_angle_alpha   90.00000000
_cell_angle_beta   90.00000000
_cell_angle_gamma   90.00000000
_symmetry_Int_Tables_number   1
_chemical_formula_structural   YRuO3
_chemical_formula_sum   'Y4 Ru4 O12'
_cell_volume   199.04673518
_cell_formula_units_Z   4
loop_
 _symmetry_equiv_pos_site_id
 _symmetry_equiv_pos_as_xyz
  1  'x, y, z'
loop_
 _atom_site_type_symbol
 _atom_site_label
 _atom_site_symmetry_multiplicity
 _atom_site_fract_x
 _atom_site_fract_y
 _atom_site_fract_z
 _atom_site_occupancy
  O  O0  1  0.19471275  0.29964025  0.05149335  1
  O  O1  1  0.30528766  0.79963999  0.05149335  1
  O  O2  1  0.60274349  0.47063569  0.25000018  1
  O  O3  1  0.89725772  0.97063543  0.25000018  1
  O  O4  1  0.19471275  0.29964025  0.44850571  1
  O  O5  1  0.30528766  0.79963999  0.44850571  1
  O  O6  1  0.69471315  0.20035948  0.55149370  1
  O  O7  1  0.80528806  0.70035922  0.55149370  1
  O  O8  1  0.10274309  0.02936405  0.75000053  1
  O  O9  1  0.39725732  0.52936559  0.75000053  1
  O  O10  1  0.69471315  0.20035948  0.94850606  1
  O  O11  1  0.80528806  0.70035922  0.94850606  1
  Ru  Ru12  1  0.00000000  0.00000000  0.00000000  1
  Ru  Ru13  1  0.50000040  0.49999974  0.00000000  1
  Ru  Ru14  1  0.00000000  0.00000000  0.50000036  1
  Ru  Ru15  1  0.50000040  0.49999974  0.50000036  1
  Y  Y16  1  0.48266680  0.06249660  0.25000018  1
  Y  Y17  1  0.01733361  0.56249633  0.25000018  1
  Y  Y18  1  0.98266720  0.43750314  0.75000053  1
  Y  Y19  1  0.51733214  0.93750288  0.75000053  1
