# generated using pymatgen
data_SrPrO3
_symmetry_space_group_name_H-M   'P 1'
_cell_length_a   4.43869411
_cell_length_b   4.43869411
_cell_length_c   4.80416719
_cell_angle_alpha   90.00000000
_cell_angle_beta   90.00000000
_cell_angle_gamma   90.00000000
_symmetry_Int_Tables_number   1
_chemical_formula_structural   SrPrO3
_chemical_formula_sum   'Sr1 Pr1 O3'
_cell_volume   94.65172801
_cell_formula_units_Z   1
loop_
 _symmetry_equiv_pos_site_id
 _symmetry_equiv_pos_as_xyz
  1  'x, y, z'
loop_
 _atom_site_type_symbol
 _atom_site_label
 _atom_site_symmetry_multiplicity
 _atom_site_fract_x
 _atom_site_fract_y
 _atom_site_fract_z
 _atom_site_occupancy
  O  O0  1  0.49999841  0.49999841  0.07510147  1
  O  O1  1  0.49999841  0.00000000  0.67367972  1
  O  O2  1  0.00000000  0.49999841  0.67367972  1
  Pr  Pr3  1  0.49999841  0.49999841  0.54886724  1
  Sr  Sr4  1  0.00000000  0.00000000  0.92866876  1
