# generated using pymatgen
data_NpAgO3
_symmetry_space_group_name_H-M   'P 1'
_cell_length_a   5.69415799
_cell_length_b   6.00339553
_cell_length_c   8.35569202
_cell_angle_alpha   90.00000000
_cell_angle_beta   90.00000000
_cell_angle_gamma   90.00000000
_symmetry_Int_Tables_number   1
_chemical_formula_structural   NpAgO3
_chemical_formula_sum   'Np4 Ag4 O12'
_cell_volume   285.63333719
_cell_formula_units_Z   4
loop_
 _symmetry_equiv_pos_site_id
 _symmetry_equiv_pos_as_xyz
  1  'x, y, z'
loop_
 _atom_site_type_symbol
 _atom_site_label
 _atom_site_symmetry_multiplicity
 _atom_site_fract_x
 _atom_site_fract_y
 _atom_site_fract_z
 _atom_site_occupancy
  Ag  Ag0  1  0.99126509  0.04006066  0.24999964  1
  Ag  Ag1  1  0.50873369  0.54006270  0.24999964  1
  Ag  Ag2  1  0.49126666  0.45993971  0.74999892  1
  Ag  Ag3  1  0.00873351  0.95993842  0.74999892  1
  Np  Np4  1  0.50000193  0.00000000  0.00000000  1
  Np  Np5  1  0.00000000  0.50000037  0.00000000  1
  Np  Np6  1  0.50000193  0.00000000  0.50000048  1
  Np  Np7  1  0.00000000  0.50000037  0.50000048  1
  O  O8  1  0.70407600  0.31228327  0.05515402  1
  O  O9  1  0.79592453  0.81228364  0.05515402  1
  O  O10  1  0.10440525  0.46876472  0.24999964  1
  O  O11  1  0.39559492  0.96876176  0.24999964  1
  O  O12  1  0.70407600  0.31228327  0.44484646  1
  O  O13  1  0.79592453  0.81228364  0.44484646  1
  O  O14  1  0.20407583  0.18771710  0.55515330  1
  O  O15  1  0.29592259  0.68771581  0.55515330  1
  O  O16  1  0.60440719  0.03123566  0.74999892  1
  O  O17  1  0.89559335  0.53123769  0.74999892  1
  O  O18  1  0.20407583  0.18771710  0.94484694  1
  O  O19  1  0.29592259  0.68771581  0.94484694  1
