# generated using pymatgen
data_AcTmO3
_symmetry_space_group_name_H-M   'P 1'
_cell_length_a   5.93953009
_cell_length_b   6.08949801
_cell_length_c   8.49380701
_cell_angle_alpha   90.00000000
_cell_angle_beta   90.00000000
_cell_angle_gamma   90.00000000
_symmetry_Int_Tables_number   1
_chemical_formula_structural   AcTmO3
_chemical_formula_sum   'Ac4 Tm4 O12'
_cell_volume   307.21043892
_cell_formula_units_Z   4
loop_
 _symmetry_equiv_pos_site_id
 _symmetry_equiv_pos_as_xyz
  1  'x, y, z'
loop_
 _atom_site_type_symbol
 _atom_site_label
 _atom_site_symmetry_multiplicity
 _atom_site_fract_x
 _atom_site_fract_y
 _atom_site_fract_z
 _atom_site_occupancy
  Ac  Ac0  1  0.98829872  0.04613352  0.24999979  1
  Ac  Ac1  1  0.51170210  0.54613369  0.24999979  1
  Ac  Ac2  1  0.48829620  0.45386664  0.75000056  1
  Ac  Ac3  1  0.01170295  0.95386680  0.75000056  1
  O  O4  1  0.69843404  0.30060278  0.05666246  1
  O  O5  1  0.80156678  0.80060294  0.05666246  1
  O  O6  1  0.10685020  0.45665997  0.24999979  1
  O  O7  1  0.39315063  0.95666014  0.24999979  1
  O  O8  1  0.69843404  0.30060278  0.44333713  1
  O  O9  1  0.80156678  0.80060294  0.44333713  1
  O  O10  1  0.19843489  0.19939739  0.55666322  1
  O  O11  1  0.30156426  0.69939755  0.55666322  1
  O  O12  1  0.60684935  0.04334019  0.75000056  1
  O  O13  1  0.89314978  0.54334035  0.75000056  1
  O  O14  1  0.19843489  0.19939739  0.94333789  1
  O  O15  1  0.30156426  0.69939755  0.94333789  1
  Tm  Tm16  1  0.49999915  0.00000000  0.00000000  1
  Tm  Tm17  1  0.00000000  0.50000016  0.00000000  1
  Tm  Tm18  1  0.49999915  0.00000000  0.50000076  1
  Tm  Tm19  1  0.00000000  0.50000016  0.50000076  1
