# generated using pymatgen
data_LaSiO3
_symmetry_space_group_name_H-M   'P 1'
_cell_length_a   5.36552308
_cell_length_b   5.37181485
_cell_length_c   7.57960265
_cell_angle_alpha   90.00000000
_cell_angle_beta   90.00000000
_cell_angle_gamma   90.00005946
_symmetry_Int_Tables_number   1
_chemical_formula_structural   LaSiO3
_chemical_formula_sum   'La4 Si4 O12'
_cell_volume   218.46382911
_cell_formula_units_Z   4
loop_
 _symmetry_equiv_pos_site_id
 _symmetry_equiv_pos_as_xyz
  1  'x, y, z'
loop_
 _atom_site_type_symbol
 _atom_site_label
 _atom_site_symmetry_multiplicity
 _atom_site_fract_x
 _atom_site_fract_y
 _atom_site_fract_z
 _atom_site_occupancy
  La  La0  1  0.00000000  0.00000000  0.00000000  1
  La  La1  1  0.50000562  0.50005883  0.00000000  1
  La  La2  1  0.00000000  0.00000000  0.50000017  1
  La  La3  1  0.49999257  0.49994155  0.50000017  1
  O  O4  1  0.50008177  0.00062613  0.00000000  1
  O  O5  1  0.00000000  0.49937776  0.00000000  1
  O  O6  1  0.24957537  0.75044894  0.24961370  1
  O  O7  1  0.74957694  0.74955006  0.24962029  1
  O  O8  1  0.25042498  0.25044846  0.25037891  1
  O  O9  1  0.75042283  0.24955144  0.25038551  1
  O  O10  1  0.00000000  0.50062128  0.50000017  1
  O  O11  1  0.49991642  0.99937612  0.50000017  1
  O  O12  1  0.75042283  0.24955144  0.74961616  1
  O  O13  1  0.25042498  0.25044846  0.74962144  1
  O  O14  1  0.74957694  0.74955006  0.75038137  1
  O  O15  1  0.24957537  0.75044894  0.75038665  1
  Si  Si16  1  0.50000029  0.00000000  0.24999894  1
  Si  Si17  1  0.00000000  0.49999952  0.24999894  1
  Si  Si18  1  0.50000029  0.00000000  0.75000009  1
  Si  Si19  1  0.00000000  0.49999952  0.75000009  1
