# generated using pymatgen
data_RbSrF3
_symmetry_space_group_name_H-M   'P 1'
_cell_length_a   6.52424194
_cell_length_b   9.09422943
_cell_length_c   6.40015372
_cell_angle_alpha   90.00000000
_cell_angle_beta   90.00000000
_cell_angle_gamma   90.00000000
_symmetry_Int_Tables_number   1
_chemical_formula_structural   RbSrF3
_chemical_formula_sum   'Rb4 Sr4 F12'
_cell_volume   379.74002008
_cell_formula_units_Z   4
loop_
 _symmetry_equiv_pos_site_id
 _symmetry_equiv_pos_as_xyz
  1  'x, y, z'
loop_
 _atom_site_type_symbol
 _atom_site_label
 _atom_site_symmetry_multiplicity
 _atom_site_fract_x
 _atom_site_fract_y
 _atom_site_fract_z
 _atom_site_occupancy
  F  F0  1  0.53510622  0.25000000  0.59581230  1
  F  F1  1  0.79438078  0.55025989  0.70355190  1
  F  F2  1  0.79438078  0.94974011  0.70355190  1
  F  F3  1  0.29438078  0.55025989  0.79644810  1
  F  F4  1  0.29438078  0.94974011  0.79644810  1
  F  F5  1  0.03510622  0.25000000  0.90418770  1
  F  F6  1  0.96489378  0.75000000  0.09581230  1
  F  F7  1  0.70561922  0.05025989  0.20355190  1
  F  F8  1  0.70561922  0.44974011  0.20355190  1
  F  F9  1  0.20561922  0.05025989  0.29644810  1
  F  F10  1  0.20561922  0.44974011  0.29644810  1
  F  F11  1  0.46489378  0.75000000  0.40418770  1
  Rb  Rb12  1  0.04494323  0.75000000  0.51187994  1
  Rb  Rb13  1  0.54494323  0.75000000  0.98812006  1
  Rb  Rb14  1  0.45505677  0.25000000  0.01187994  1
  Rb  Rb15  1  0.95505677  0.25000000  0.48812006  1
  Sr  Sr16  1  0.50000000  0.00000000  0.50000000  1
  Sr  Sr17  1  0.50000000  0.50000000  0.50000000  1
  Sr  Sr18  1  0.00000000  0.00000000  0.00000000  1
  Sr  Sr19  1  0.00000000  0.50000000  0.00000000  1
