# generated using pymatgen
data_UCrSe3
_symmetry_space_group_name_H-M   'P 1'
_cell_length_a   6.43484200
_cell_length_b   7.39570000
_cell_length_c   9.22199900
_cell_angle_alpha   90.00000000
_cell_angle_beta   90.00000000
_cell_angle_gamma   90.00000000
_symmetry_Int_Tables_number   1
_chemical_formula_structural   UCrSe3
_chemical_formula_sum   'U4 Cr4 Se12'
_cell_volume   438.87641696
_cell_formula_units_Z   4
loop_
 _symmetry_equiv_pos_site_id
 _symmetry_equiv_pos_as_xyz
  1  'x, y, z'
loop_
 _atom_site_type_symbol
 _atom_site_label
 _atom_site_symmetry_multiplicity
 _atom_site_fract_x
 _atom_site_fract_y
 _atom_site_fract_z
 _atom_site_occupancy
  U  U0  1  0.44312300  0.87891600  0.25000000  1
  U  U1  1  0.05687700  0.37891600  0.25000000  1
  U  U2  1  0.55687700  0.12108400  0.75000000  1
  U  U3  1  0.94312300  0.62108400  0.75000000  1
  Cr  Cr4  1  0.50000000  0.50000000  0.00000000  1
  Cr  Cr5  1  0.00000000  0.00000000  0.50000000  1
  Cr  Cr6  1  0.50000000  0.50000000  0.50000000  1
  Cr  Cr7  1  0.00000000  0.00000000  0.00000000  1
  Se  Se8  1  0.64702000  0.54017600  0.25000000  1
  Se  Se9  1  0.85298000  0.04017600  0.25000000  1
  Se  Se10  1  0.35298000  0.45982400  0.75000000  1
  Se  Se11  1  0.14702000  0.95982400  0.75000000  1
  Se  Se12  1  0.66232300  0.81989800  0.55652100  1
  Se  Se13  1  0.83767700  0.31989800  0.94347900  1
  Se  Se14  1  0.33767700  0.18010200  0.05652100  1
  Se  Se15  1  0.16232300  0.68010200  0.44347900  1
  Se  Se16  1  0.33767700  0.18010200  0.44347900  1
  Se  Se17  1  0.16232300  0.68010200  0.05652100  1
  Se  Se18  1  0.66232300  0.81989800  0.94347900  1
  Se  Se19  1  0.83767700  0.31989800  0.55652100  1
