# generated using pymatgen
data_UCdO3
_symmetry_space_group_name_H-M   'P 1'
_cell_length_a   5.79446921
_cell_length_b   5.96655372
_cell_length_c   8.56051250
_cell_angle_alpha   90.00000000
_cell_angle_beta   90.00000000
_cell_angle_gamma   90.00000000
_symmetry_Int_Tables_number   1
_chemical_formula_structural   UCdO3
_chemical_formula_sum   'U4 Cd4 O12'
_cell_volume   295.96269987
_cell_formula_units_Z   4
loop_
 _symmetry_equiv_pos_site_id
 _symmetry_equiv_pos_as_xyz
  1  'x, y, z'
loop_
 _atom_site_type_symbol
 _atom_site_label
 _atom_site_symmetry_multiplicity
 _atom_site_fract_x
 _atom_site_fract_y
 _atom_site_fract_z
 _atom_site_occupancy
  Cd  Cd0  1  0.99906821  0.04370027  0.25000022  1
  Cd  Cd1  1  0.50093113  0.54370079  0.25000022  1
  Cd  Cd2  1  0.49906728  0.45629858  0.74999949  1
  Cd  Cd3  1  0.00093192  0.95629911  0.74999949  1
  O  O4  1  0.67278121  0.32596371  0.07142563  1
  O  O5  1  0.82722158  0.82596256  0.07142563  1
  O  O6  1  0.13012581  0.40695854  0.25000022  1
  O  O7  1  0.36987340  0.90695739  0.25000022  1
  O  O8  1  0.67278121  0.32596371  0.42857598  1
  O  O9  1  0.82722158  0.82596256  0.42857598  1
  O  O10  1  0.17278028  0.17403681  0.57142373  1
  O  O11  1  0.32721893  0.67403566  0.57142373  1
  O  O12  1  0.63012502  0.09304366  0.74999949  1
  O  O13  1  0.86987260  0.59304419  0.74999949  1
  O  O14  1  0.17278028  0.17403681  0.92857525  1
  O  O15  1  0.32721893  0.67403566  0.92857525  1
  U  U16  1  0.49999921  0.00000000  0.00000000  1
  U  U17  1  0.00000000  0.50000053  0.00000000  1
  U  U18  1  0.49999921  0.00000000  0.50000044  1
  U  U19  1  0.00000000  0.50000053  0.50000044  1
