# generated using pymatgen
data_LaInO3
_symmetry_space_group_name_H-M   'P 1'
_cell_length_a   5.77123300
_cell_length_b   6.00910100
_cell_length_c   8.35159800
_cell_angle_alpha   90.00000000
_cell_angle_beta   90.00000000
_cell_angle_gamma   90.00000000
_symmetry_Int_Tables_number   1
_chemical_formula_structural   LaInO3
_chemical_formula_sum   'La4 In4 O12'
_cell_volume   289.63276714
_cell_formula_units_Z   4
loop_
 _symmetry_equiv_pos_site_id
 _symmetry_equiv_pos_as_xyz
  1  'x, y, z'
loop_
 _atom_site_type_symbol
 _atom_site_label
 _atom_site_symmetry_multiplicity
 _atom_site_fract_x
 _atom_site_fract_y
 _atom_site_fract_z
 _atom_site_occupancy
  La  La0  1  0.01706900  0.94499100  0.25000000  1
  La  La1  1  0.51706900  0.55500900  0.75000000  1
  La  La2  1  0.48293100  0.44499100  0.25000000  1
  La  La3  1  0.98293100  0.05500900  0.75000000  1
  In  In4  1  0.50000000  0.00000000  0.00000000  1
  In  In5  1  0.00000000  0.50000000  0.00000000  1
  In  In6  1  0.00000000  0.50000000  0.50000000  1
  In  In7  1  0.50000000  0.00000000  0.50000000  1
  O  O8  1  0.61964800  0.05032600  0.25000000  1
  O  O9  1  0.11964800  0.44967400  0.75000000  1
  O  O10  1  0.88035200  0.55032600  0.25000000  1
  O  O11  1  0.38035200  0.94967400  0.75000000  1
  O  O12  1  0.19484200  0.19727600  0.06350500  1
  O  O13  1  0.69484200  0.30272400  0.93649500  1
  O  O14  1  0.30515800  0.69727600  0.43649500  1
  O  O15  1  0.80515800  0.80272400  0.56350500  1
  O  O16  1  0.80515800  0.80272400  0.93649500  1
  O  O17  1  0.30515800  0.69727600  0.06350500  1
  O  O18  1  0.69484200  0.30272400  0.56350500  1
  O  O19  1  0.19484200  0.19727600  0.43649500  1
