# generated using pymatgen
data_SmNbO3
_symmetry_space_group_name_H-M   'P 1'
_cell_length_a   5.47336753
_cell_length_b   5.99579583
_cell_length_c   7.76318531
_cell_angle_alpha   90.00000000
_cell_angle_beta   90.00000000
_cell_angle_gamma   90.00000000
_symmetry_Int_Tables_number   1
_chemical_formula_structural   SmNbO3
_chemical_formula_sum   'Sm4 Nb4 O12'
_cell_volume   254.76595969
_cell_formula_units_Z   4
loop_
 _symmetry_equiv_pos_site_id
 _symmetry_equiv_pos_as_xyz
  1  'x, y, z'
loop_
 _atom_site_type_symbol
 _atom_site_label
 _atom_site_symmetry_multiplicity
 _atom_site_fract_x
 _atom_site_fract_y
 _atom_site_fract_z
 _atom_site_occupancy
  Nb  Nb0  1  0.49999931  0.00000000  0.00000000  1
  Nb  Nb1  1  0.00000000  0.50000035  0.00000000  1
  Nb  Nb2  1  0.49999931  0.00000000  0.49999966  1
  Nb  Nb3  1  0.00000000  0.50000035  0.49999966  1
  O  O4  1  0.68569669  0.29923968  0.05146084  1
  O  O5  1  0.81430307  0.79924002  0.05146084  1
  O  O6  1  0.14205331  0.44612760  0.25000047  1
  O  O7  1  0.35794782  0.94612628  0.25000047  1
  O  O8  1  0.68569669  0.29923968  0.44854011  1
  O  O9  1  0.81430307  0.79924002  0.44854011  1
  O  O10  1  0.18569738  0.20075900  0.55146049  1
  O  O11  1  0.31430193  0.70075935  0.55146049  1
  O  O12  1  0.64205263  0.05387275  0.75000013  1
  O  O13  1  0.85794714  0.55387310  0.75000013  1
  O  O14  1  0.18569738  0.20075900  0.94853977  1
  O  O15  1  0.31430193  0.70075935  0.94853977  1
  Sm  Sm16  1  0.96659506  0.08219426  0.25000047  1
  Sm  Sm17  1  0.53340471  0.58219461  0.25000047  1
  Sm  Sm18  1  0.46659575  0.41780442  0.75000013  1
  Sm  Sm19  1  0.03340357  0.91780477  0.75000013  1
