# generated using pymatgen
data_CsTcO3
_symmetry_space_group_name_H-M   'P 1'
_cell_length_a   5.70088518
_cell_length_b   5.70088518
_cell_length_c   5.70088593
_cell_angle_alpha   59.99991694
_cell_angle_beta   59.99991694
_cell_angle_gamma   59.99990495
_symmetry_Int_Tables_number   1
_chemical_formula_structural   CsTcO3
_chemical_formula_sum   'Cs2 Tc2 O6'
_cell_volume   131.01200219
_cell_formula_units_Z   2
loop_
 _symmetry_equiv_pos_site_id
 _symmetry_equiv_pos_as_xyz
  1  'x, y, z'
loop_
 _atom_site_type_symbol
 _atom_site_label
 _atom_site_symmetry_multiplicity
 _atom_site_fract_x
 _atom_site_fract_y
 _atom_site_fract_z
 _atom_site_occupancy
  Cs  Cs0  1  0.25000021  0.25000021  0.25000014  1
  Cs  Cs1  1  0.74999920  0.74999920  0.74999898  1
  O  O2  1  0.25001452  0.75000075  0.24998351  1
  O  O3  1  0.75001537  0.74998379  0.25000000  1
  O  O4  1  0.74999932  0.24998152  0.25001794  1
  O  O5  1  0.24999908  0.75001688  0.74998320  1
  O  O6  1  0.24998405  0.25001562  0.74999911  1
  O  O7  1  0.74998489  0.24999866  0.75001561  1
  Tc  Tc8  1  0.00000000  0.00000000  0.00000000  1
  Tc  Tc9  1  0.50000042  0.50000042  0.50000027  1
