# generated using pymatgen
data_EuYO3
_symmetry_space_group_name_H-M   'P 1'
_cell_length_a   5.93090121
_cell_length_b   6.13376833
_cell_length_c   8.12191855
_cell_angle_alpha   90.00000000
_cell_angle_beta   90.00000000
_cell_angle_gamma   90.00000000
_symmetry_Int_Tables_number   1
_chemical_formula_structural   EuYO3
_chemical_formula_sum   'Eu4 Y4 O12'
_cell_volume   295.46543951
_cell_formula_units_Z   4
loop_
 _symmetry_equiv_pos_site_id
 _symmetry_equiv_pos_as_xyz
  1  'x, y, z'
loop_
 _atom_site_type_symbol
 _atom_site_label
 _atom_site_symmetry_multiplicity
 _atom_site_fract_x
 _atom_site_fract_y
 _atom_site_fract_z
 _atom_site_occupancy
  Eu  Eu0  1  0.97628333  0.05585963  0.25000004  1
  Eu  Eu1  1  0.52371805  0.55586058  0.25000004  1
  Eu  Eu2  1  0.47628343  0.44413970  0.75000013  1
  Eu  Eu3  1  0.02371646  0.94414065  0.75000013  1
  O  O4  1  0.70629570  0.29091415  0.07789046  1
  O  O5  1  0.79370400  0.79091347  0.07789046  1
  O  O6  1  0.14328514  0.42888317  0.25000004  1
  O  O7  1  0.35671476  0.92888249  0.25000004  1
  O  O8  1  0.70629570  0.29091415  0.42210963  1
  O  O9  1  0.79370400  0.79091347  0.42210963  1
  O  O10  1  0.20629411  0.20908680  0.57789055  1
  O  O11  1  0.29370410  0.70908612  0.57789055  1
  O  O12  1  0.64328504  0.07111615  0.75000013  1
  O  O13  1  0.85671466  0.57111710  0.75000013  1
  O  O14  1  0.20629411  0.20908680  0.92210972  1
  O  O15  1  0.29370410  0.70908612  0.92210972  1
  Y  Y16  1  0.49999990  0.00000000  0.00000000  1
  Y  Y17  1  0.00000000  0.49999932  0.00000000  1
  Y  Y18  1  0.49999990  0.00000000  0.50000009  1
  Y  Y19  1  0.00000000  0.49999932  0.50000009  1
