# generated using pymatgen
data_NbSnO3
_symmetry_space_group_name_H-M   'P 1'
_cell_length_a   5.65931452
_cell_length_b   5.76845192
_cell_length_c   8.12643110
_cell_angle_alpha   90.00000000
_cell_angle_beta   90.00000000
_cell_angle_gamma   90.00000000
_symmetry_Int_Tables_number   1
_chemical_formula_structural   NbSnO3
_chemical_formula_sum   'Nb4 Sn4 O12'
_cell_volume   265.29127424
_cell_formula_units_Z   4
loop_
 _symmetry_equiv_pos_site_id
 _symmetry_equiv_pos_as_xyz
  1  'x, y, z'
loop_
 _atom_site_type_symbol
 _atom_site_label
 _atom_site_symmetry_multiplicity
 _atom_site_fract_x
 _atom_site_fract_y
 _atom_site_fract_z
 _atom_site_occupancy
  Nb  Nb0  1  0.50000048  0.00000000  0.00000000  1
  Nb  Nb1  1  0.00000000  0.50000070  0.00000000  1
  Nb  Nb2  1  0.50000048  0.00000000  0.50000055  1
  Nb  Nb3  1  0.00000000  0.50000070  0.50000055  1
  O  O4  1  0.71551952  0.28265816  0.02787324  1
  O  O5  1  0.78448193  0.78265713  0.02787324  1
  O  O6  1  0.06388936  0.48828178  0.25000027  1
  O  O7  1  0.43610935  0.98828249  0.25000027  1
  O  O8  1  0.71551952  0.28265816  0.47212607  1
  O  O9  1  0.78448193  0.78265713  0.47212607  1
  O  O10  1  0.21551903  0.21734254  0.52787379  1
  O  O11  1  0.28448145  0.71734324  0.52787379  1
  O  O12  1  0.56388985  0.01171892  0.74999959  1
  O  O13  1  0.93610984  0.51171788  0.74999959  1
  O  O14  1  0.21551903  0.21734254  0.97212662  1
  O  O15  1  0.28448145  0.71734324  0.97212662  1
  Sn  Sn16  1  0.00298623  0.03933811  0.25000027  1
  Sn  Sn17  1  0.49701426  0.53933708  0.25000027  1
  Sn  Sn18  1  0.50298671  0.46066259  0.74999959  1
  Sn  Sn19  1  0.99701377  0.96066156  0.74999959  1
