# generated using pymatgen
data_NbGeO3
_symmetry_space_group_name_H-M   'P 1'
_cell_length_a   5.30975025
_cell_length_b   5.81186229
_cell_length_c   7.79535487
_cell_angle_alpha   90.00000000
_cell_angle_beta   90.00000000
_cell_angle_gamma   90.00000000
_symmetry_Int_Tables_number   1
_chemical_formula_structural   NbGeO3
_chemical_formula_sum   'Nb4 Ge4 O12'
_cell_volume   240.56104370
_cell_formula_units_Z   4
loop_
 _symmetry_equiv_pos_site_id
 _symmetry_equiv_pos_as_xyz
  1  'x, y, z'
loop_
 _atom_site_type_symbol
 _atom_site_label
 _atom_site_symmetry_multiplicity
 _atom_site_fract_x
 _atom_site_fract_y
 _atom_site_fract_z
 _atom_site_occupancy
  Ge  Ge0  1  0.98182961  0.02354323  0.25000016  1
  Ge  Ge1  1  0.51817126  0.52354303  0.25000016  1
  Ge  Ge2  1  0.48182869  0.47645658  0.75000049  1
  Ge  Ge3  1  0.01817035  0.97645638  0.75000049  1
  Nb  Nb4  1  0.50000092  0.00000000  0.00000000  1
  Nb  Nb5  1  0.00000000  0.49999980  0.00000000  1
  Nb  Nb6  1  0.50000092  0.00000000  0.49999905  1
  Nb  Nb7  1  0.00000000  0.49999980  0.49999905  1
  O  O8  1  0.67382642  0.30871516  0.05118305  1
  O  O9  1  0.82617257  0.80871668  0.05118305  1
  O  O10  1  0.13511558  0.47332849  0.25000016  1
  O  O11  1  0.36488534  0.97332829  0.25000016  1
  O  O12  1  0.67382642  0.30871516  0.44881728  1
  O  O13  1  0.82617257  0.80871668  0.44881728  1
  O  O14  1  0.17382738  0.19128464  0.55118337  1
  O  O15  1  0.32617353  0.69128273  0.55118337  1
  O  O16  1  0.63511462  0.02667303  0.75000049  1
  O  O17  1  0.86488625  0.52667284  0.75000049  1
  O  O18  1  0.17382738  0.19128464  0.94881761  1
  O  O19  1  0.32617353  0.69128273  0.94881761  1
