# generated using pymatgen
data_GeMoO3
_symmetry_space_group_name_H-M   'P 1'
_cell_length_a   5.28258960
_cell_length_b   5.68377268
_cell_length_c   7.69552021
_cell_angle_alpha   90.00000000
_cell_angle_beta   90.00000000
_cell_angle_gamma   90.00000000
_symmetry_Int_Tables_number   1
_chemical_formula_structural   GeMoO3
_chemical_formula_sum   'Ge4 Mo4 O12'
_cell_volume   231.05828998
_cell_formula_units_Z   4
loop_
 _symmetry_equiv_pos_site_id
 _symmetry_equiv_pos_as_xyz
  1  'x, y, z'
loop_
 _atom_site_type_symbol
 _atom_site_label
 _atom_site_symmetry_multiplicity
 _atom_site_fract_x
 _atom_site_fract_y
 _atom_site_fract_z
 _atom_site_occupancy
  Ge  Ge0  1  0.98457204  0.02418112  0.24999999  1
  Ge  Ge1  1  0.51542713  0.52418177  0.24999999  1
  Ge  Ge2  1  0.48457295  0.47581952  0.74999998  1
  Ge  Ge3  1  0.01542615  0.97581841  0.74999998  1
  Mo  Mo4  1  0.50000098  0.00000000  0.00000000  1
  Mo  Mo5  1  0.00000000  0.50000064  0.00000000  1
  Mo  Mo6  1  0.50000098  0.00000000  0.49999999  1
  Mo  Mo7  1  0.00000000  0.50000064  0.49999999  1
  O  O8  1  0.67792508  0.30968163  0.05436929  1
  O  O9  1  0.82207598  0.80968052  0.05436929  1
  O  O10  1  0.12466234  0.47798182  0.24999999  1
  O  O11  1  0.37533864  0.97798070  0.24999999  1
  O  O12  1  0.67792508  0.30968163  0.44563199  1
  O  O13  1  0.82207598  0.80968052  0.44563199  1
  O  O14  1  0.17792410  0.19031901  0.55436928  1
  O  O15  1  0.32207499  0.69031966  0.55436928  1
  O  O16  1  0.62466143  0.02201883  0.74999998  1
  O  O17  1  0.87533773  0.52201947  0.74999998  1
  O  O18  1  0.17792410  0.19031901  0.94563198  1
  O  O19  1  0.32207499  0.69031966  0.94563198  1
