# generated using pymatgen
data_PmVO3
_symmetry_space_group_name_H-M   'P 1'
_cell_length_a   5.41787157
_cell_length_b   5.70207930
_cell_length_c   7.74918936
_cell_angle_alpha   90.00000000
_cell_angle_beta   90.00000000
_cell_angle_gamma   90.00000000
_symmetry_Int_Tables_number   1
_chemical_formula_structural   PmVO3
_chemical_formula_sum   'Pm4 V4 O12'
_cell_volume   239.39674002
_cell_formula_units_Z   4
loop_
 _symmetry_equiv_pos_site_id
 _symmetry_equiv_pos_as_xyz
  1  'x, y, z'
loop_
 _atom_site_type_symbol
 _atom_site_label
 _atom_site_symmetry_multiplicity
 _atom_site_fract_x
 _atom_site_fract_y
 _atom_site_fract_z
 _atom_site_occupancy
  O  O0  1  0.69569755  0.29861037  0.05173444  1
  O  O1  1  0.80430293  0.79860868  0.05173444  1
  O  O2  1  0.10131839  0.46976197  0.25000034  1
  O  O3  1  0.39868239  0.96976028  0.25000034  1
  O  O4  1  0.69569755  0.29861037  0.44826495  1
  O  O5  1  0.80430293  0.79860868  0.44826495  1
  O  O6  1  0.19569678  0.20138969  0.55173513  1
  O  O7  1  0.30430400  0.70138975  0.55173513  1
  O  O8  1  0.60131732  0.03023809  0.74999974  1
  O  O9  1  0.89868317  0.53023815  0.74999974  1
  O  O10  1  0.19569678  0.20138969  0.94826564  1
  O  O11  1  0.30430400  0.70138975  0.94826564  1
  Pm  Pm12  1  0.98179330  0.06360838  0.25000034  1
  Pm  Pm13  1  0.51820534  0.56360844  0.25000034  1
  Pm  Pm14  1  0.48179437  0.43639169  0.74999974  1
  Pm  Pm15  1  0.01820641  0.93639175  0.74999974  1
  V  V16  1  0.50000078  0.00000000  0.00000000  1
  V  V17  1  0.00000000  0.50000006  0.00000000  1
  V  V18  1  0.50000078  0.00000000  0.49999940  1
  V  V19  1  0.00000000  0.50000006  0.49999940  1
