# generated using pymatgen
data_EuPuO3
_symmetry_space_group_name_H-M   'P 1'
_cell_length_a   5.84631494
_cell_length_b   6.07065152
_cell_length_c   8.41983405
_cell_angle_alpha   90.00000000
_cell_angle_beta   90.00000000
_cell_angle_gamma   90.00000000
_symmetry_Int_Tables_number   1
_chemical_formula_structural   EuPuO3
_chemical_formula_sum   'Eu4 Pu4 O12'
_cell_volume   298.82783093
_cell_formula_units_Z   4
loop_
 _symmetry_equiv_pos_site_id
 _symmetry_equiv_pos_as_xyz
  1  'x, y, z'
loop_
 _atom_site_type_symbol
 _atom_site_label
 _atom_site_symmetry_multiplicity
 _atom_site_fract_x
 _atom_site_fract_y
 _atom_site_fract_z
 _atom_site_occupancy
  Eu  Eu0  1  0.98522746  0.05460205  0.25000018  1
  Eu  Eu1  1  0.51477213  0.55460439  0.25000018  1
  Eu  Eu2  1  0.48522873  0.44539700  0.74999934  1
  Eu  Eu3  1  0.01477170  0.94539770  0.74999934  1
  O  O4  1  0.69109004  0.30643004  0.06469961  1
  O  O5  1  0.80891297  0.80643074  0.06469961  1
  O  O6  1  0.12240873  0.44642984  0.25000018  1
  O  O7  1  0.37759170  0.94643219  0.25000018  1
  O  O8  1  0.69109004  0.30643004  0.43530074  1
  O  O9  1  0.80891297  0.80643074  0.43530074  1
  O  O10  1  0.19108960  0.19357066  0.56469878  1
  O  O11  1  0.30891083  0.69357135  0.56469878  1
  O  O12  1  0.62240745  0.05356921  0.74999934  1
  O  O13  1  0.87759213  0.55356826  0.74999934  1
  O  O14  1  0.19108960  0.19357066  0.93530109  1
  O  O15  1  0.30891083  0.69357135  0.93530109  1
  Pu  Pu16  1  0.50000043  0.00000000  0.00000000  1
  Pu  Pu17  1  0.00000000  0.49999905  0.00000000  1
  Pu  Pu18  1  0.50000043  0.00000000  0.49999917  1
  Pu  Pu19  1  0.00000000  0.49999905  0.49999917  1
