# generated using pymatgen
data_PmMnO3
_symmetry_space_group_name_H-M   'P 1'
_cell_length_a   5.39783002
_cell_length_b   5.74036786
_cell_length_c   7.63858501
_cell_angle_alpha   90.00000000
_cell_angle_beta   90.00000000
_cell_angle_gamma   90.00000000
_symmetry_Int_Tables_number   1
_chemical_formula_structural   PmMnO3
_chemical_formula_sum   'Pm4 Mn4 O12'
_cell_volume   236.68560446
_cell_formula_units_Z   4
loop_
 _symmetry_equiv_pos_site_id
 _symmetry_equiv_pos_as_xyz
  1  'x, y, z'
loop_
 _atom_site_type_symbol
 _atom_site_label
 _atom_site_symmetry_multiplicity
 _atom_site_fract_x
 _atom_site_fract_y
 _atom_site_fract_z
 _atom_site_occupancy
  Mn  Mn0  1  0.50000092  0.00000000  0.00000000  1
  Mn  Mn1  1  0.00000000  0.49999932  0.00000000  1
  Mn  Mn2  1  0.50000092  0.00000000  0.49999967  1
  Mn  Mn3  1  0.00000000  0.49999932  0.49999967  1
  O  O4  1  0.71030025  0.31218383  0.04922509  1
  O  O5  1  0.78969882  0.81218488  0.04922509  1
  O  O6  1  0.09760959  0.47431629  0.25000049  1
  O  O7  1  0.40239133  0.97431561  0.25000049  1
  O  O8  1  0.71030025  0.31218383  0.45077459  1
  O  O9  1  0.78969882  0.81218488  0.45077459  1
  O  O10  1  0.21030118  0.18781549  0.54922476  1
  O  O11  1  0.28969975  0.68781481  0.54922476  1
  O  O12  1  0.59760867  0.02568477  0.75000016  1
  O  O13  1  0.90239040  0.52568408  0.75000016  1
  O  O14  1  0.21030118  0.18781549  0.95077557  1
  O  O15  1  0.28969975  0.68781481  0.95077557  1
  Pm  Pm16  1  0.98418438  0.06852697  0.25000049  1
  Pm  Pm17  1  0.51581654  0.56852628  0.25000049  1
  Pm  Pm18  1  0.48418346  0.43147409  0.75000016  1
  Pm  Pm19  1  0.01581561  0.93147341  0.75000016  1
