# generated using pymatgen
data_YAlO3
_symmetry_space_group_name_H-M   'P 1'
_cell_length_a   5.22651600
_cell_length_b   5.38720600
_cell_length_c   7.45329900
_cell_angle_alpha   90.00000000
_cell_angle_beta   90.00000000
_cell_angle_gamma   90.00000000
_symmetry_Int_Tables_number   1
_chemical_formula_structural   YAlO3
_chemical_formula_sum   'Y4 Al4 O12'
_cell_volume   209.85745943
_cell_formula_units_Z   4
loop_
 _symmetry_equiv_pos_site_id
 _symmetry_equiv_pos_as_xyz
  1  'x, y, z'
loop_
 _atom_site_type_symbol
 _atom_site_label
 _atom_site_symmetry_multiplicity
 _atom_site_fract_x
 _atom_site_fract_y
 _atom_site_fract_z
 _atom_site_occupancy
  Y  Y0  1  0.01284600  0.94582200  0.75000000  1
  Y  Y1  1  0.51284600  0.55417800  0.25000000  1
  Y  Y2  1  0.48715400  0.44582200  0.75000000  1
  Y  Y3  1  0.98715400  0.05417800  0.25000000  1
  Al  Al4  1  0.00000000  0.50000000  0.00000000  1
  Al  Al5  1  0.50000000  0.00000000  0.00000000  1
  Al  Al6  1  0.50000000  0.00000000  0.50000000  1
  Al  Al7  1  0.00000000  0.50000000  0.50000000  1
  O  O8  1  0.70600900  0.29388700  0.45477400  1
  O  O9  1  0.20600900  0.20611300  0.54522600  1
  O  O10  1  0.79399100  0.79388700  0.04522600  1
  O  O11  1  0.29399100  0.70611300  0.95477400  1
  O  O12  1  0.29399100  0.70611300  0.54522600  1
  O  O13  1  0.79399100  0.79388700  0.45477400  1
  O  O14  1  0.20600900  0.20611300  0.95477400  1
  O  O15  1  0.70600900  0.29388700  0.04522600  1
  O  O16  1  0.08577900  0.47703900  0.25000000  1
  O  O17  1  0.58577900  0.02296100  0.75000000  1
  O  O18  1  0.41422100  0.97703900  0.25000000  1
  O  O19  1  0.91422100  0.52296100  0.75000000  1
