# generated using pymatgen
data_PmScO3
_symmetry_space_group_name_H-M   'P 1'
_cell_length_a   5.53128128
_cell_length_b   5.78835646
_cell_length_c   7.97296041
_cell_angle_alpha   90.00000000
_cell_angle_beta   90.00000000
_cell_angle_gamma   90.00000000
_symmetry_Int_Tables_number   1
_chemical_formula_structural   PmScO3
_chemical_formula_sum   'Pm4 Sc4 O12'
_cell_volume   255.27049441
_cell_formula_units_Z   4
loop_
 _symmetry_equiv_pos_site_id
 _symmetry_equiv_pos_as_xyz
  1  'x, y, z'
loop_
 _atom_site_type_symbol
 _atom_site_label
 _atom_site_symmetry_multiplicity
 _atom_site_fract_x
 _atom_site_fract_y
 _atom_site_fract_z
 _atom_site_occupancy
  O  O0  1  0.69545008  0.30290982  0.06014579  1
  O  O1  1  0.80454957  0.80290840  0.06014579  1
  O  O2  1  0.11516861  0.45438978  0.24999999  1
  O  O3  1  0.38483127  0.95439008  0.24999999  1
  O  O4  1  0.69545008  0.30290982  0.43985293  1
  O  O5  1  0.80454957  0.80290840  0.43985293  1
  O  O6  1  0.19545019  0.19709049  0.56014702  1
  O  O7  1  0.30455150  0.69709079  0.56014702  1
  O  O8  1  0.61517031  0.04560880  0.74999996  1
  O  O9  1  0.88483115  0.54560911  0.74999996  1
  O  O10  1  0.19545019  0.19709049  0.93985416  1
  O  O11  1  0.30455150  0.69709079  0.93985416  1
  Pm  Pm12  1  0.98360212  0.05909104  0.24999999  1
  Pm  Pm13  1  0.51639753  0.55908962  0.24999999  1
  Pm  Pm14  1  0.48360043  0.44090927  0.74999996  1
  Pm  Pm15  1  0.01639765  0.94090957  0.74999996  1
  Sc  Sc16  1  0.49999988  0.00000000  0.00000000  1
  Sc  Sc17  1  0.00000000  0.50000031  0.00000000  1
  Sc  Sc18  1  0.49999988  0.00000000  0.50000123  1
  Sc  Sc19  1  0.00000000  0.50000031  0.50000123  1
