# generated using pymatgen
data_AgRuO3
_symmetry_space_group_name_H-M   'P 1'
_cell_length_a   5.39105365
_cell_length_b   5.38011821
_cell_length_c   7.62963978
_cell_angle_alpha   90.00000000
_cell_angle_beta   90.00000000
_cell_angle_gamma   90.00000000
_symmetry_Int_Tables_number   1
_chemical_formula_structural   AgRuO3
_chemical_formula_sum   'Ag4 Ru4 O12'
_cell_volume   221.29393190
_cell_formula_units_Z   4
loop_
 _symmetry_equiv_pos_site_id
 _symmetry_equiv_pos_as_xyz
  1  'x, y, z'
loop_
 _atom_site_type_symbol
 _atom_site_label
 _atom_site_symmetry_multiplicity
 _atom_site_fract_x
 _atom_site_fract_y
 _atom_site_fract_z
 _atom_site_occupancy
  Ag  Ag0  1  0.99326780  0.03083018  0.25000001  1
  Ag  Ag1  1  0.50673211  0.53083034  0.25000001  1
  Ag  Ag2  1  0.49326721  0.46916999  0.75000002  1
  Ag  Ag3  1  0.00673152  0.96917016  0.75000002  1
  O  O4  1  0.70097429  0.29862913  0.04485926  1
  O  O5  1  0.79902562  0.79862929  0.04485926  1
  O  O6  1  0.09373307  0.48793352  0.25000001  1
  O  O7  1  0.40626567  0.98793368  0.25000001  1
  O  O8  1  0.70097429  0.29862913  0.45514075  1
  O  O9  1  0.79902562  0.79862929  0.45514075  1
  O  O10  1  0.20097556  0.20137104  0.54485796  1
  O  O11  1  0.29902689  0.70137121  0.54485796  1
  O  O12  1  0.59373366  0.01206665  0.75000002  1
  O  O13  1  0.90626811  0.51206682  0.75000002  1
  O  O14  1  0.20097556  0.20137104  0.95514208  1
  O  O15  1  0.29902689  0.70137121  0.95514208  1
  Ru  Ru16  1  0.50000059  0.00000000  0.00000000  1
  Ru  Ru17  1  0.00000000  0.50000017  0.00000000  1
  Ru  Ru18  1  0.50000059  0.00000000  0.50000001  1
  Ru  Ru19  1  0.00000000  0.50000017  0.50000001  1
