# generated using pymatgen
data_KZnCl3
_symmetry_space_group_name_H-M   'P 1'
_cell_length_a   6.81284700
_cell_length_b   7.10179000
_cell_length_c   9.80209200
_cell_angle_alpha   90.00000000
_cell_angle_beta   90.00000000
_cell_angle_gamma   90.00000000
_symmetry_Int_Tables_number   1
_chemical_formula_structural   KZnCl3
_chemical_formula_sum   'K4 Zn4 Cl12'
_cell_volume   474.25862331
_cell_formula_units_Z   4
loop_
 _symmetry_equiv_pos_site_id
 _symmetry_equiv_pos_as_xyz
  1  'x, y, z'
loop_
 _atom_site_type_symbol
 _atom_site_label
 _atom_site_symmetry_multiplicity
 _atom_site_fract_x
 _atom_site_fract_y
 _atom_site_fract_z
 _atom_site_occupancy
  Cl  Cl0  1  0.11807475  0.04385123  0.74999991  1
  Cl  Cl1  1  0.18839087  0.30542722  0.06035326  1
  Cl  Cl2  1  0.18839087  0.30542722  0.43964624  1
  Cl  Cl3  1  0.31161002  0.80542613  0.06035326  1
  Cl  Cl4  1  0.31161002  0.80542613  0.43964624  1
  Cl  Cl5  1  0.38192426  0.54385014  0.74999991  1
  Cl  Cl6  1  0.61807564  0.45614948  0.25000041  1
  Cl  Cl7  1  0.68838988  0.19457349  0.56035408  1
  Cl  Cl8  1  0.68838988  0.19457349  0.93964706  1
  Cl  Cl9  1  0.81160902  0.69457420  0.56035408  1
  Cl  Cl10  1  0.81160902  0.69457420  0.93964706  1
  Cl  Cl11  1  0.88192514  0.95614839  0.25000041  1
  K  K12  1  0.01906961  0.56645487  0.25000041  1
  K  K13  1  0.48092940  0.06645596  0.25000041  1
  K  K14  1  0.51907049  0.93354546  0.74999991  1
  K  K15  1  0.98093028  0.43354475  0.74999991  1
  Zn  Zn16  1  0.00000000  0.00000000  0.00000000  1
  Zn  Zn17  1  0.00000000  0.00000000  0.49999951  1
  Zn  Zn18  1  0.50000089  0.50000071  0.00000000  1
  Zn  Zn19  1  0.50000089  0.50000071  0.49999951  1
