# generated using pymatgen
data_NaCdF3
_symmetry_space_group_name_H-M   'P 1'
_cell_length_a   5.85866405
_cell_length_b   7.88922832
_cell_length_c   5.46956945
_cell_angle_alpha   90.00000000
_cell_angle_beta   90.00000000
_cell_angle_gamma   90.00000000
_symmetry_Int_Tables_number   1
_chemical_formula_structural   NaCdF3
_chemical_formula_sum   'Na4 Cd4 F12'
_cell_volume   252.80535087
_cell_formula_units_Z   4
loop_
 _symmetry_equiv_pos_site_id
 _symmetry_equiv_pos_as_xyz
  1  'x, y, z'
loop_
 _atom_site_type_symbol
 _atom_site_label
 _atom_site_symmetry_multiplicity
 _atom_site_fract_x
 _atom_site_fract_y
 _atom_site_fract_z
 _atom_site_occupancy
  Cd  Cd0  1  0.00000000  0.00000000  0.50000000  1
  Cd  Cd1  1  0.00000000  0.50000000  0.50000000  1
  Cd  Cd2  1  0.50000000  0.00000000  0.00000000  1
  Cd  Cd3  1  0.50000000  0.50000000  0.00000000  1
  F  F4  1  0.31963584  0.07853113  0.67024235  1
  F  F5  1  0.31963584  0.42146887  0.67024235  1
  F  F6  1  0.08785091  0.75000000  0.66261287  1
  F  F7  1  0.58785091  0.75000000  0.83738713  1
  F  F8  1  0.81963584  0.07853113  0.82975765  1
  F  F9  1  0.81963584  0.42146887  0.82975765  1
  F  F10  1  0.18036416  0.57853113  0.17024235  1
  F  F11  1  0.18036416  0.92146887  0.17024235  1
  F  F12  1  0.41214909  0.25000000  0.16261287  1
  F  F13  1  0.91214909  0.25000000  0.33738713  1
  F  F14  1  0.68036416  0.57853113  0.32975765  1
  F  F15  1  0.68036416  0.92146887  0.32975765  1
  Na  Na16  1  0.57864267  0.25000000  0.52244644  1
  Na  Na17  1  0.07864267  0.25000000  0.97755356  1
  Na  Na18  1  0.92135733  0.75000000  0.02244644  1
  Na  Na19  1  0.42135733  0.75000000  0.47755356  1
