# generated using pymatgen
data_CsCeO3
_symmetry_space_group_name_H-M   'P 1'
_cell_length_a   6.66018173
_cell_length_b   6.66018173
_cell_length_c   6.66018148
_cell_angle_alpha   59.96928397
_cell_angle_beta   59.96928397
_cell_angle_gamma   59.96929007
_symmetry_Int_Tables_number   1
_chemical_formula_structural   CsCeO3
_chemical_formula_sum   'Cs2 Ce2 O6'
_cell_volume   208.75680116
_cell_formula_units_Z   2
loop_
 _symmetry_equiv_pos_site_id
 _symmetry_equiv_pos_as_xyz
  1  'x, y, z'
loop_
 _atom_site_type_symbol
 _atom_site_label
 _atom_site_symmetry_multiplicity
 _atom_site_fract_x
 _atom_site_fract_y
 _atom_site_fract_z
 _atom_site_occupancy
  Ce  Ce0  1  0.00000000  0.00000000  0.00000000  1
  Ce  Ce1  1  0.49999962  0.49999962  0.49999962  1
  Cs  Cs2  1  0.25000012  0.25000012  0.25000012  1
  Cs  Cs3  1  0.75000035  0.75000035  0.75000035  1
  O  O4  1  0.75000032  0.25240152  0.24759690  1
  O  O5  1  0.74759629  0.75240320  0.25000132  1
  O  O6  1  0.24759723  0.74999993  0.25240158  1
  O  O7  1  0.75240262  0.24999992  0.74759827  1
  O  O8  1  0.25240356  0.24759665  0.74999853  1
  O  O9  1  0.24999953  0.74759833  0.75240295  1
