# generated using pymatgen
data_PaInO3
_symmetry_space_group_name_H-M   'P 1'
_cell_length_a   6.18539496
_cell_length_b   6.20133650
_cell_length_c   8.78601286
_cell_angle_alpha   90.00000000
_cell_angle_beta   90.00000000
_cell_angle_gamma   90.00000000
_symmetry_Int_Tables_number   1
_chemical_formula_structural   PaInO3
_chemical_formula_sum   'Pa4 In4 O12'
_cell_volume   337.01138199
_cell_formula_units_Z   4
loop_
 _symmetry_equiv_pos_site_id
 _symmetry_equiv_pos_as_xyz
  1  'x, y, z'
loop_
 _atom_site_type_symbol
 _atom_site_label
 _atom_site_symmetry_multiplicity
 _atom_site_fract_x
 _atom_site_fract_y
 _atom_site_fract_z
 _atom_site_occupancy
  In  In0  1  0.99969364  0.00203021  0.24999963  1
  In  In1  1  0.50030435  0.50203049  0.24999963  1
  In  In2  1  0.49969485  0.49797007  0.74999890  1
  In  In3  1  0.00030556  0.99797036  0.74999890  1
  O  O4  1  0.72542983  0.27446503  0.01875140  1
  O  O5  1  0.77457140  0.77446531  0.01875140  1
  O  O6  1  0.46191715  0.00157063  0.24999963  1
  O  O7  1  0.03808326  0.50157091  0.24999963  1
  O  O8  1  0.72542983  0.27446503  0.48124901  1
  O  O9  1  0.77457140  0.77446531  0.48124901  1
  O  O10  1  0.22542780  0.22553525  0.51874953  1
  O  O11  1  0.27457099  0.72553554  0.51874953  1
  O  O12  1  0.96191432  0.49842965  0.74999890  1
  O  O13  1  0.53808367  0.99842993  0.74999890  1
  O  O14  1  0.22542780  0.22553525  0.98124942  1
  O  O15  1  0.27457099  0.72553554  0.98124942  1
  Pa  Pa16  1  0.49999879  0.00000000  0.00000000  1
  Pa  Pa17  1  0.00000000  0.50000028  0.00000000  1
  Pa  Pa18  1  0.49999879  0.00000000  0.49999927  1
  Pa  Pa19  1  0.00000000  0.50000028  0.49999927  1
