# generated using pymatgen
data_LiOsO3
_symmetry_space_group_name_H-M   'P 1'
_cell_length_a   5.01877967
_cell_length_b   5.22920921
_cell_length_c   7.28400256
_cell_angle_alpha   90.00000000
_cell_angle_beta   90.00000000
_cell_angle_gamma   90.00000000
_symmetry_Int_Tables_number   1
_chemical_formula_structural   LiOsO3
_chemical_formula_sum   'Li4 Os4 O12'
_cell_volume   191.16317598
_cell_formula_units_Z   4
loop_
 _symmetry_equiv_pos_site_id
 _symmetry_equiv_pos_as_xyz
  1  'x, y, z'
loop_
 _atom_site_type_symbol
 _atom_site_label
 _atom_site_symmetry_multiplicity
 _atom_site_fract_x
 _atom_site_fract_y
 _atom_site_fract_z
 _atom_site_occupancy
  Li  Li0  1  0.98385869  0.05011083  0.24999991  1
  Li  Li1  1  0.51614141  0.55011186  0.24999991  1
  Li  Li2  1  0.48385866  0.44988829  0.74999974  1
  Li  Li3  1  0.01614137  0.94988932  0.74999974  1
  O  O4  1  0.67714668  0.31565767  0.06684237  1
  O  O5  1  0.82285342  0.81565870  0.06684237  1
  O  O6  1  0.13656109  0.46769213  0.24999991  1
  O  O7  1  0.36343895  0.96769125  0.24999991  1
  O  O8  1  0.67714668  0.31565767  0.43315745  1
  O  O9  1  0.82285342  0.81565870  0.43315745  1
  O  O10  1  0.17714665  0.18434145  0.56684220  1
  O  O11  1  0.32285338  0.68434248  0.56684220  1
  O  O12  1  0.63656112  0.03230890  0.74999974  1
  O  O13  1  0.86343898  0.53230802  0.74999974  1
  O  O14  1  0.17714665  0.18434145  0.93315728  1
  O  O15  1  0.32285338  0.68434248  0.93315728  1
  Os  Os16  1  0.50000003  0.00000000  0.00000000  1
  Os  Os17  1  0.00000000  0.49999912  0.00000000  1
  Os  Os18  1  0.50000003  0.00000000  0.49999982  1
  Os  Os19  1  0.00000000  0.49999912  0.49999982  1
