# generated using pymatgen
data_BaSmO3
_symmetry_space_group_name_H-M   'P 1'
_cell_length_a   6.26062642
_cell_length_b   6.33487243
_cell_length_c   8.87692776
_cell_angle_alpha   90.00000000
_cell_angle_beta   90.00000000
_cell_angle_gamma   90.00000000
_symmetry_Int_Tables_number   1
_chemical_formula_structural   BaSmO3
_chemical_formula_sum   'Ba4 Sm4 O12'
_cell_volume   352.06134874
_cell_formula_units_Z   4
loop_
 _symmetry_equiv_pos_site_id
 _symmetry_equiv_pos_as_xyz
  1  'x, y, z'
loop_
 _atom_site_type_symbol
 _atom_site_label
 _atom_site_symmetry_multiplicity
 _atom_site_fract_x
 _atom_site_fract_y
 _atom_site_fract_z
 _atom_site_occupancy
  Ba  Ba0  1  0.99110370  0.03545454  0.24999978  1
  Ba  Ba1  1  0.50889636  0.53545356  0.24999978  1
  Ba  Ba2  1  0.49110421  0.46454448  0.74999934  1
  Ba  Ba3  1  0.00889528  0.96454507  0.74999934  1
  O  O4  1  0.71199904  0.28711391  0.04598212  1
  O  O5  1  0.78800102  0.78711293  0.04598212  1
  O  O6  1  0.08642106  0.46922176  0.24999978  1
  O  O7  1  0.41358002  0.96922078  0.24999978  1
  O  O8  1  0.71199904  0.28711391  0.45401856  1
  O  O9  1  0.78800102  0.78711293  0.45401856  1
  O  O10  1  0.21199955  0.21288669  0.54598056  1
  O  O11  1  0.28800153  0.71288728  0.54598056  1
  O  O12  1  0.58642055  0.03077884  0.74999934  1
  O  O13  1  0.91357951  0.53077943  0.74999934  1
  O  O14  1  0.21199955  0.21288669  0.95401925  1
  O  O15  1  0.28800153  0.71288728  0.95401925  1
  Sm  Sm16  1  0.49999949  0.00000000  0.00000000  1
  Sm  Sm17  1  0.00000000  0.49999902  0.00000000  1
  Sm  Sm18  1  0.49999949  0.00000000  0.50000069  1
  Sm  Sm19  1  0.00000000  0.49999902  0.50000069  1
