# generated using pymatgen
data_CaCrO3
_symmetry_space_group_name_H-M   'P 1'
_cell_length_a   5.31962900
_cell_length_b   5.44217700
_cell_length_c   7.56503000
_cell_angle_alpha   90.00000000
_cell_angle_beta   90.00000000
_cell_angle_gamma   90.00000000
_symmetry_Int_Tables_number   1
_chemical_formula_structural   CaCrO3
_chemical_formula_sum   'Ca4 Cr4 O12'
_cell_volume   219.01036152
_cell_formula_units_Z   4
loop_
 _symmetry_equiv_pos_site_id
 _symmetry_equiv_pos_as_xyz
  1  'x, y, z'
loop_
 _atom_site_type_symbol
 _atom_site_label
 _atom_site_symmetry_multiplicity
 _atom_site_fract_x
 _atom_site_fract_y
 _atom_site_fract_z
 _atom_site_occupancy
  Ca  Ca0  1  0.49069600  0.04335800  0.75000000  1
  Ca  Ca1  1  0.99069600  0.45664200  0.25000000  1
  Ca  Ca2  1  0.00930400  0.54335800  0.75000000  1
  Ca  Ca3  1  0.50930400  0.95664200  0.25000000  1
  Cr  Cr4  1  0.00000000  0.00000000  0.50000000  1
  Cr  Cr5  1  0.50000000  0.50000000  0.50000000  1
  Cr  Cr6  1  0.50000000  0.50000000  0.00000000  1
  Cr  Cr7  1  0.00000000  0.00000000  0.00000000  1
  O  O8  1  0.42480200  0.51777300  0.25000000  1
  O  O9  1  0.92480200  0.98222700  0.75000000  1
  O  O10  1  0.07519800  0.01777300  0.25000000  1
  O  O11  1  0.57519800  0.48222700  0.75000000  1
  O  O12  1  0.20941900  0.29281600  0.96057300  1
  O  O13  1  0.70941900  0.20718400  0.03942700  1
  O  O14  1  0.29058100  0.79281600  0.53942700  1
  O  O15  1  0.79058100  0.70718400  0.46057300  1
  O  O16  1  0.20941900  0.29281600  0.53942700  1
  O  O17  1  0.70941900  0.20718400  0.46057300  1
  O  O18  1  0.79058100  0.70718400  0.03942700  1
  O  O19  1  0.29058100  0.79281600  0.96057300  1
