# generated using pymatgen
data_SmZrO3
_symmetry_space_group_name_H-M   'P 1'
_cell_length_a   5.59925325
_cell_length_b   6.13162044
_cell_length_c   7.74302968
_cell_angle_alpha   90.00000000
_cell_angle_beta   90.00000000
_cell_angle_gamma   90.00000000
_symmetry_Int_Tables_number   1
_chemical_formula_structural   SmZrO3
_chemical_formula_sum   'Sm4 Zr4 O12'
_cell_volume   265.83753277
_cell_formula_units_Z   4
loop_
 _symmetry_equiv_pos_site_id
 _symmetry_equiv_pos_as_xyz
  1  'x, y, z'
loop_
 _atom_site_type_symbol
 _atom_site_label
 _atom_site_symmetry_multiplicity
 _atom_site_fract_x
 _atom_site_fract_y
 _atom_site_fract_z
 _atom_site_occupancy
  O  O0  1  0.68335362  0.30714556  0.05513346  1
  O  O1  1  0.81664640  0.80714553  0.05513346  1
  O  O2  1  0.15429379  0.42694913  0.24999904  1
  O  O3  1  0.34570503  0.92695072  0.24999904  1
  O  O4  1  0.68335362  0.30714556  0.44486721  1
  O  O5  1  0.81664640  0.80714553  0.44486721  1
  O  O6  1  0.18335302  0.19285440  0.55513283  1
  O  O7  1  0.31664758  0.69285600  0.55513283  1
  O  O8  1  0.65429261  0.07304921  0.74999971  1
  O  O9  1  0.84570563  0.57304917  0.74999971  1
  O  O10  1  0.18335302  0.19285440  0.94486658  1
  O  O11  1  0.31664758  0.69285600  0.94486658  1
  Sm  Sm12  1  0.97313691  0.07532919  0.24999904  1
  Sm  Sm13  1  0.52686133  0.57532915  0.24999904  1
  Sm  Sm14  1  0.47313809  0.42467241  0.74999971  1
  Sm  Sm15  1  0.02686251  0.92467074  0.74999971  1
  Zr  Zr16  1  0.50000060  0.00000000  0.00000000  1
  Zr  Zr17  1  0.00000000  0.49999996  0.00000000  1
  Zr  Zr18  1  0.50000060  0.00000000  0.50000067  1
  Zr  Zr19  1  0.00000000  0.49999996  0.50000067  1
