# generated using pymatgen
data_TbPdO3
_symmetry_space_group_name_H-M   'P 1'
_cell_length_a   5.40030409
_cell_length_b   5.89537883
_cell_length_c   7.54296673
_cell_angle_alpha   90.00000000
_cell_angle_beta   90.00000000
_cell_angle_gamma   90.00000000
_symmetry_Int_Tables_number   1
_chemical_formula_structural   TbPdO3
_chemical_formula_sum   'Tb4 Pd4 O12'
_cell_volume   240.14421278
_cell_formula_units_Z   4
loop_
 _symmetry_equiv_pos_site_id
 _symmetry_equiv_pos_as_xyz
  1  'x, y, z'
loop_
 _atom_site_type_symbol
 _atom_site_label
 _atom_site_symmetry_multiplicity
 _atom_site_fract_x
 _atom_site_fract_y
 _atom_site_fract_z
 _atom_site_occupancy
  O  O0  1  0.68038391  0.31131672  0.06035026  1
  O  O1  1  0.81961681  0.81131682  0.06035026  1
  O  O2  1  0.13847554  0.44386461  0.24999978  1
  O  O3  1  0.36152409  0.94386471  0.24999978  1
  O  O4  1  0.68038391  0.31131672  0.43965062  1
  O  O5  1  0.81961681  0.81131682  0.43965062  1
  O  O6  1  0.18038429  0.18868338  0.56034981  1
  O  O7  1  0.31961533  0.68868348  0.56034981  1
  O  O8  1  0.63847516  0.05613549  0.75000066  1
  O  O9  1  0.86152371  0.55613559  0.75000066  1
  O  O10  1  0.18038429  0.18868338  0.93965017  1
  O  O11  1  0.31961533  0.68868348  0.93965017  1
  Pd  Pd12  1  0.49999962  0.00000000  0.00000000  1
  Pd  Pd13  1  0.00000000  0.50000010  0.00000000  1
  Pd  Pd14  1  0.49999962  0.00000000  0.49999955  1
  Pd  Pd15  1  0.00000000  0.50000010  0.49999955  1
  Tb  Tb16  1  0.97146937  0.08487665  0.24999978  1
  Tb  Tb17  1  0.52852950  0.58487505  0.24999978  1
  Tb  Tb18  1  0.47146975  0.41512345  0.75000066  1
  Tb  Tb19  1  0.02852987  0.91512355  0.75000066  1
