# generated using pymatgen
data_TlAuO3
_symmetry_space_group_name_H-M   'P 1'
_cell_length_a   5.59543859
_cell_length_b   5.80901266
_cell_length_c   8.05075562
_cell_angle_alpha   90.00000000
_cell_angle_beta   90.00000000
_cell_angle_gamma   90.00000000
_symmetry_Int_Tables_number   1
_chemical_formula_structural   TlAuO3
_chemical_formula_sum   'Tl4 Au4 O12'
_cell_volume   261.68154806
_cell_formula_units_Z   4
loop_
 _symmetry_equiv_pos_site_id
 _symmetry_equiv_pos_as_xyz
  1  'x, y, z'
loop_
 _atom_site_type_symbol
 _atom_site_label
 _atom_site_symmetry_multiplicity
 _atom_site_fract_x
 _atom_site_fract_y
 _atom_site_fract_z
 _atom_site_occupancy
  Au  Au0  1  0.50000013  0.00000000  0.00000000  1
  Au  Au1  1  0.00000000  0.50000063  0.00000000  1
  Au  Au2  1  0.50000013  0.00000000  0.50000027  1
  Au  Au3  1  0.00000000  0.50000063  0.50000027  1
  O  O4  1  0.69260701  0.31244724  0.06625838  1
  O  O5  1  0.80739158  0.81244788  0.06625838  1
  O  O6  1  0.12468013  0.42447661  0.25000014  1
  O  O7  1  0.37532000  0.92447724  0.25000014  1
  O  O8  1  0.69260701  0.31244724  0.43374190  1
  O  O9  1  0.80739158  0.81244788  0.43374190  1
  O  O10  1  0.19260689  0.18755167  0.56625865  1
  O  O11  1  0.30739324  0.68755230  0.56625865  1
  O  O12  1  0.62468025  0.07552230  0.75000041  1
  O  O13  1  0.87532012  0.57552293  0.75000041  1
  O  O14  1  0.19260689  0.18755167  0.93374093  1
  O  O15  1  0.30739324  0.68755230  0.93374093  1
  Tl  Tl16  1  0.98333132  0.05399885  0.25000014  1
  Tl  Tl17  1  0.51666906  0.55399948  0.25000014  1
  Tl  Tl18  1  0.48333119  0.44600006  0.75000041  1
  Tl  Tl19  1  0.01666893  0.94600069  0.75000041  1
