# generated using pymatgen
data_BaLaO3
_symmetry_space_group_name_H-M   'P 1'
_cell_length_a   6.34032128
_cell_length_b   6.44065780
_cell_length_c   9.01685493
_cell_angle_alpha   90.00000000
_cell_angle_beta   90.00000000
_cell_angle_gamma   90.00000000
_symmetry_Int_Tables_number   1
_chemical_formula_structural   BaLaO3
_chemical_formula_sum   'Ba4 La4 O12'
_cell_volume   368.21084304
_cell_formula_units_Z   4
loop_
 _symmetry_equiv_pos_site_id
 _symmetry_equiv_pos_as_xyz
  1  'x, y, z'
loop_
 _atom_site_type_symbol
 _atom_site_label
 _atom_site_symmetry_multiplicity
 _atom_site_fract_x
 _atom_site_fract_y
 _atom_site_fract_z
 _atom_site_occupancy
  Ba  Ba0  1  0.99038041  0.04026452  0.24999959  1
  Ba  Ba1  1  0.50961929  0.54026469  0.24999959  1
  Ba  Ba2  1  0.49038209  0.45973410  0.74999987  1
  Ba  Ba3  1  0.00961939  0.95973427  0.74999987  1
  La  La4  1  0.49999990  0.00000000  0.00000000  1
  La  La5  1  0.00000000  0.50000017  0.00000000  1
  La  La6  1  0.49999990  0.00000000  0.50000028  1
  La  La7  1  0.00000000  0.50000017  0.50000028  1
  O  O8  1  0.70600050  0.29406313  0.04899713  1
  O  O9  1  0.79399920  0.79406485  0.04899713  1
  O  O10  1  0.09208839  0.46603625  0.24999959  1
  O  O11  1  0.40791151  0.96603642  0.24999959  1
  O  O12  1  0.70600050  0.29406313  0.45100315  1
  O  O13  1  0.79399920  0.79406485  0.45100315  1
  O  O14  1  0.20600218  0.20593704  0.54899630  1
  O  O15  1  0.29399930  0.70593566  0.54899630  1
  O  O16  1  0.59208829  0.03396237  0.74999987  1
  O  O17  1  0.90791298  0.53396409  0.74999987  1
  O  O18  1  0.20600218  0.20593704  0.95100232  1
  O  O19  1  0.29399930  0.70593566  0.95100232  1
