# generated using pymatgen
data_PmCuO3
_symmetry_space_group_name_H-M   'P 1'
_cell_length_a   5.30847138
_cell_length_b   5.56623817
_cell_length_c   7.54976004
_cell_angle_alpha   90.00000000
_cell_angle_beta   90.00000000
_cell_angle_gamma   90.00000000
_symmetry_Int_Tables_number   1
_chemical_formula_structural   PmCuO3
_chemical_formula_sum   'Pm4 Cu4 O12'
_cell_volume   223.08194071
_cell_formula_units_Z   4
loop_
 _symmetry_equiv_pos_site_id
 _symmetry_equiv_pos_as_xyz
  1  'x, y, z'
loop_
 _atom_site_type_symbol
 _atom_site_label
 _atom_site_symmetry_multiplicity
 _atom_site_fract_x
 _atom_site_fract_y
 _atom_site_fract_z
 _atom_site_occupancy
  Cu  Cu0  1  0.50000081  0.00000000  0.00000000  1
  Cu  Cu1  1  0.00000000  0.50000016  0.00000000  1
  Cu  Cu2  1  0.50000081  0.00000000  0.50000000  1
  Cu  Cu3  1  0.00000000  0.50000016  0.50000000  1
  O  O4  1  0.71268916  0.29933142  0.04201988  1
  O  O5  1  0.78731139  0.79933159  0.04201988  1
  O  O6  1  0.07942211  0.48669675  0.25000000  1
  O  O7  1  0.42057870  0.98669691  0.25000000  1
  O  O8  1  0.71268916  0.29933142  0.45798012  1
  O  O9  1  0.78731139  0.79933159  0.45798012  1
  O  O10  1  0.21268835  0.20066694  0.54201988  1
  O  O11  1  0.28731058  0.70066711  0.54201988  1
  O  O12  1  0.57942292  0.01330342  0.75000000  1
  O  O13  1  0.92057763  0.51330179  0.75000000  1
  O  O14  1  0.21268835  0.20066694  0.95798012  1
  O  O15  1  0.28731058  0.70066711  0.95798012  1
  Pm  Pm16  1  0.98593543  0.06296173  0.25000000  1
  Pm  Pm17  1  0.51406701  0.56296190  0.25000000  1
  Pm  Pm18  1  0.48593462  0.43703843  0.75000000  1
  Pm  Pm19  1  0.01406620  0.93703680  0.75000000  1
