# generated using pymatgen
data_CoAgO3
_symmetry_space_group_name_H-M   'P 1'
_cell_length_a   3.66444453
_cell_length_b   3.66444453
_cell_length_c   3.84769018
_cell_angle_alpha   90.00000000
_cell_angle_beta   90.00000000
_cell_angle_gamma   90.00000000
_symmetry_Int_Tables_number   1
_chemical_formula_structural   CoAgO3
_chemical_formula_sum   'Co1 Ag1 O3'
_cell_volume   51.66737508
_cell_formula_units_Z   1
loop_
 _symmetry_equiv_pos_site_id
 _symmetry_equiv_pos_as_xyz
  1  'x, y, z'
loop_
 _atom_site_type_symbol
 _atom_site_label
 _atom_site_symmetry_multiplicity
 _atom_site_fract_x
 _atom_site_fract_y
 _atom_site_fract_z
 _atom_site_occupancy
  Ag  Ag0  1  0.00000000  0.00000000  0.07746726  1
  Co  Co1  1  0.49999938  0.49999938  0.57874462  1
  O  O2  1  0.49999938  0.49999938  0.08014419  1
  O  O3  1  0.49999938  0.00000000  0.58182179  1
  O  O4  1  0.00000000  0.49999938  0.58182179  1
