# generated using pymatgen
data_SmHfO3
_symmetry_space_group_name_H-M   'P 1'
_cell_length_a   5.54987768
_cell_length_b   6.08919056
_cell_length_c   7.68195424
_cell_angle_alpha   90.00000000
_cell_angle_beta   90.00000000
_cell_angle_gamma   90.00000000
_symmetry_Int_Tables_number   1
_chemical_formula_structural   SmHfO3
_chemical_formula_sum   'Sm4 Hf4 O12'
_cell_volume   259.60598019
_cell_formula_units_Z   4
loop_
 _symmetry_equiv_pos_site_id
 _symmetry_equiv_pos_as_xyz
  1  'x, y, z'
loop_
 _atom_site_type_symbol
 _atom_site_label
 _atom_site_symmetry_multiplicity
 _atom_site_fract_x
 _atom_site_fract_y
 _atom_site_fract_z
 _atom_site_occupancy
  Hf  Hf0  1  0.50000021  0.00000000  0.00000000  1
  Hf  Hf1  1  0.00000000  0.49999913  0.00000000  1
  Hf  Hf2  1  0.50000021  0.00000000  0.50000038  1
  Hf  Hf3  1  0.00000000  0.49999913  0.50000038  1
  O  O4  1  0.68827463  0.30245235  0.05152335  1
  O  O5  1  0.81172420  0.80245148  0.05152335  1
  O  O6  1  0.14414732  0.43513994  0.25000019  1
  O  O7  1  0.35585109  0.93513907  0.25000019  1
  O  O8  1  0.68827463  0.30245235  0.44847573  1
  O  O9  1  0.81172420  0.80245148  0.44847573  1
  O  O10  1  0.18827622  0.19754678  0.55152372  1
  O  O11  1  0.31172579  0.69754920  0.55152372  1
  O  O12  1  0.64414933  0.06486248  0.75000056  1
  O  O13  1  0.85585129  0.56486161  0.75000056  1
  O  O14  1  0.18827622  0.19754678  0.94847610  1
  O  O15  1  0.31172579  0.69754920  0.94847610  1
  Sm  Sm16  1  0.97295658  0.07528258  0.25000019  1
  Sm  Sm17  1  0.52704405  0.57528172  0.25000019  1
  Sm  Sm18  1  0.47295637  0.42471655  0.75000056  1
  Sm  Sm19  1  0.02704384  0.92471732  0.75000056  1
