# generated using pymatgen
data_CaAuO3
_symmetry_space_group_name_H-M   'P 1'
_cell_length_a   3.98348561
_cell_length_b   3.98348561
_cell_length_c   4.28788632
_cell_angle_alpha   90.00000000
_cell_angle_beta   90.00000000
_cell_angle_gamma   90.00000000
_symmetry_Int_Tables_number   1
_chemical_formula_structural   CaAuO3
_chemical_formula_sum   'Ca1 Au1 O3'
_cell_volume   68.04085586
_cell_formula_units_Z   1
loop_
 _symmetry_equiv_pos_site_id
 _symmetry_equiv_pos_as_xyz
  1  'x, y, z'
loop_
 _atom_site_type_symbol
 _atom_site_label
 _atom_site_symmetry_multiplicity
 _atom_site_fract_x
 _atom_site_fract_y
 _atom_site_fract_z
 _atom_site_occupancy
  Au  Au0  1  0.50000181  0.50000181  0.55852460  1
  Ca  Ca1  1  0.00000000  0.00000000  0.97012133  1
  O  O2  1  0.50000181  0.50000181  0.07161337  1
  O  O3  1  0.50000181  0.00000000  0.64987031  1
  O  O4  1  0.00000000  0.50000181  0.64987031  1
