# generated using pymatgen
data_AcYbO3
_symmetry_space_group_name_H-M   'P 1'
_cell_length_a   5.93689918
_cell_length_b   6.21408061
_cell_length_c   8.42907164
_cell_angle_alpha   90.00000000
_cell_angle_beta   90.00000000
_cell_angle_gamma   90.00000000
_symmetry_Int_Tables_number   1
_chemical_formula_structural   AcYbO3
_chemical_formula_sum   'Ac4 Yb4 O12'
_cell_volume   310.96842993
_cell_formula_units_Z   4
loop_
 _symmetry_equiv_pos_site_id
 _symmetry_equiv_pos_as_xyz
  1  'x, y, z'
loop_
 _atom_site_type_symbol
 _atom_site_label
 _atom_site_symmetry_multiplicity
 _atom_site_fract_x
 _atom_site_fract_y
 _atom_site_fract_z
 _atom_site_occupancy
  Ac  Ac0  1  0.98295252  0.06236482  0.25000025  1
  Ac  Ac1  1  0.51704769  0.56236477  0.25000025  1
  Ac  Ac2  1  0.48295245  0.43763352  0.75000074  1
  Ac  Ac3  1  0.01704762  0.93763509  0.75000074  1
  O  O4  1  0.68543020  0.31028403  0.06484819  1
  O  O5  1  0.81457001  0.81028399  0.06484819  1
  O  O6  1  0.12853511  0.43161976  0.25000025  1
  O  O7  1  0.37146496  0.93162132  0.25000025  1
  O  O8  1  0.68543020  0.31028403  0.43515231  1
  O  O9  1  0.81457001  0.81028399  0.43515231  1
  O  O10  1  0.18543013  0.18971592  0.56484868  1
  O  O11  1  0.31456994  0.68971587  0.56484868  1
  O  O12  1  0.62853518  0.06837858  0.75000074  1
  O  O13  1  0.87146503  0.56837853  0.75000074  1
  O  O14  1  0.18543013  0.18971592  0.93515162  1
  O  O15  1  0.31456994  0.68971587  0.93515162  1
  Yb  Yb16  1  0.50000007  0.00000000  0.00000000  1
  Yb  Yb17  1  0.00000000  0.49999995  0.00000000  1
  Yb  Yb18  1  0.50000007  0.00000000  0.50000050  1
  Yb  Yb19  1  0.00000000  0.49999995  0.50000050  1
