# generated using pymatgen
data_HoMnO3
_symmetry_space_group_name_H-M   'P 1'
_cell_length_a   5.31208200
_cell_length_b   5.85681000
_cell_length_c   7.47783700
_cell_angle_alpha   90.00000000
_cell_angle_beta   90.00000000
_cell_angle_gamma   90.00000000
_symmetry_Int_Tables_number   1
_chemical_formula_structural   HoMnO3
_chemical_formula_sum   'Ho4 Mn4 O12'
_cell_volume   232.64938030
_cell_formula_units_Z   4
loop_
 _symmetry_equiv_pos_site_id
 _symmetry_equiv_pos_as_xyz
  1  'x, y, z'
loop_
 _atom_site_type_symbol
 _atom_site_label
 _atom_site_symmetry_multiplicity
 _atom_site_fract_x
 _atom_site_fract_y
 _atom_site_fract_z
 _atom_site_occupancy
  Ho  Ho0  1  0.01930400  0.91712400  0.75000000  1
  Ho  Ho1  1  0.51930400  0.58287600  0.25000000  1
  Ho  Ho2  1  0.48069600  0.41712400  0.75000000  1
  Ho  Ho3  1  0.98069600  0.08287600  0.25000000  1
  Mn  Mn4  1  0.50000000  0.00000000  0.50000000  1
  Mn  Mn5  1  0.00000000  0.50000000  0.50000000  1
  Mn  Mn6  1  0.00000000  0.50000000  0.00000000  1
  Mn  Mn7  1  0.50000000  0.00000000  0.00000000  1
  O  O8  1  0.69993000  0.32620200  0.44227800  1
  O  O9  1  0.19993000  0.17379800  0.55772200  1
  O  O10  1  0.80007000  0.82620200  0.05772200  1
  O  O11  1  0.30007000  0.67379800  0.94227800  1
  O  O12  1  0.30007000  0.67379800  0.55772200  1
  O  O13  1  0.80007000  0.82620200  0.44227800  1
  O  O14  1  0.19993000  0.17379800  0.94227800  1
  O  O15  1  0.69993000  0.32620200  0.05772200  1
  O  O16  1  0.12160900  0.45612000  0.25000000  1
  O  O17  1  0.62160900  0.04388000  0.75000000  1
  O  O18  1  0.37839100  0.95612000  0.25000000  1
  O  O19  1  0.87839100  0.54388000  0.75000000  1
