# generated using pymatgen
data_RbPrO3
_symmetry_space_group_name_H-M   'P 1'
_cell_length_a   6.51623270
_cell_length_b   6.53909651
_cell_length_c   9.23921995
_cell_angle_alpha   90.00000000
_cell_angle_beta   90.00000000
_cell_angle_gamma   90.00000000
_symmetry_Int_Tables_number   1
_chemical_formula_structural   RbPrO3
_chemical_formula_sum   'Rb4 Pr4 O12'
_cell_volume   393.68569832
_cell_formula_units_Z   4
loop_
 _symmetry_equiv_pos_site_id
 _symmetry_equiv_pos_as_xyz
  1  'x, y, z'
loop_
 _atom_site_type_symbol
 _atom_site_label
 _atom_site_symmetry_multiplicity
 _atom_site_fract_x
 _atom_site_fract_y
 _atom_site_fract_z
 _atom_site_occupancy
  O  O0  1  0.73590988  0.26387132  0.01138841  1
  O  O1  1  0.76409027  0.76387158  0.01138841  1
  O  O2  1  0.02177178  0.49665118  0.25000054  1
  O  O3  1  0.47822724  0.99665145  0.25000054  1
  O  O4  1  0.73590988  0.26387132  0.48861268  1
  O  O5  1  0.76409027  0.76387158  0.48861268  1
  O  O6  1  0.23591085  0.23612742  0.51138733  1
  O  O7  1  0.26408971  0.73612769  0.51138733  1
  O  O8  1  0.52177081  0.00334756  0.75000055  1
  O  O9  1  0.97822780  0.50334782  0.75000055  1
  O  O10  1  0.23591085  0.23612742  0.98861268  1
  O  O11  1  0.26408971  0.73612769  0.98861268  1
  Pr  Pr12  1  0.50000056  0.00000000  0.00000000  1
  Pr  Pr13  1  0.00000000  0.50000027  0.00000000  1
  Pr  Pr14  1  0.50000056  0.00000000  0.50000000  1
  Pr  Pr15  1  0.00000000  0.50000027  0.50000000  1
  Rb  Rb16  1  0.99875654  0.00276644  0.25000054  1
  Rb  Rb17  1  0.50124361  0.50276670  0.25000054  1
  Rb  Rb18  1  0.49875444  0.49723383  0.75000055  1
  Rb  Rb19  1  0.00124458  0.99723410  0.75000055  1
