# generated using pymatgen
data_EuHoO3
_symmetry_space_group_name_H-M   'P 1'
_cell_length_a   5.83484090
_cell_length_b   6.03904642
_cell_length_c   8.26580486
_cell_angle_alpha   90.00000000
_cell_angle_beta   90.00000000
_cell_angle_gamma   90.00000000
_symmetry_Int_Tables_number   1
_chemical_formula_structural   EuHoO3
_chemical_formula_sum   'Eu4 Ho4 O12'
_cell_volume   291.26113326
_cell_formula_units_Z   4
loop_
 _symmetry_equiv_pos_site_id
 _symmetry_equiv_pos_as_xyz
  1  'x, y, z'
loop_
 _atom_site_type_symbol
 _atom_site_label
 _atom_site_symmetry_multiplicity
 _atom_site_fract_x
 _atom_site_fract_y
 _atom_site_fract_z
 _atom_site_occupancy
  Eu  Eu0  1  0.97628198  0.05676062  0.24999985  1
  Eu  Eu1  1  0.52371779  0.55676174  0.24999985  1
  Eu  Eu2  1  0.47628377  0.44323885  0.74999956  1
  Eu  Eu3  1  0.02371616  0.94323832  0.74999956  1
  Ho  Ho4  1  0.49999992  0.00000000  0.00000000  1
  Ho  Ho5  1  0.00000000  0.50000112  0.00000000  1
  Ho  Ho6  1  0.49999992  0.00000000  0.49999971  1
  Ho  Ho7  1  0.00000000  0.50000112  0.49999971  1
  O  O8  1  0.70272353  0.29460115  0.07121267  1
  O  O9  1  0.79727624  0.79459896  0.07121267  1
  O  O10  1  0.13180993  0.43922332  0.24999985  1
  O  O11  1  0.36818827  0.93922444  0.24999985  1
  O  O12  1  0.70272353  0.29460115  0.42878704  1
  O  O13  1  0.79727624  0.79459896  0.42878704  1
  O  O14  1  0.20272532  0.20539998  0.57121358  1
  O  O15  1  0.29727631  0.70540110  0.57121358  1
  O  O16  1  0.63181157  0.06077615  0.74999956  1
  O  O17  1  0.86818820  0.56077562  0.74999956  1
  O  O18  1  0.20272532  0.20539998  0.92878796  1
  O  O19  1  0.29727631  0.70540110  0.92878796  1
