# generated using pymatgen
data_CsHfO3
_symmetry_space_group_name_H-M   'P 1'
_cell_length_a   5.97846625
_cell_length_b   5.97846625
_cell_length_c   5.97846722
_cell_angle_alpha   60.00163810
_cell_angle_beta   60.00163810
_cell_angle_gamma   60.00163889
_symmetry_Int_Tables_number   1
_chemical_formula_structural   CsHfO3
_chemical_formula_sum   'Cs2 Hf2 O6'
_cell_volume   151.10211705
_cell_formula_units_Z   2
loop_
 _symmetry_equiv_pos_site_id
 _symmetry_equiv_pos_as_xyz
  1  'x, y, z'
loop_
 _atom_site_type_symbol
 _atom_site_label
 _atom_site_symmetry_multiplicity
 _atom_site_fract_x
 _atom_site_fract_y
 _atom_site_fract_z
 _atom_site_occupancy
  Cs  Cs0  1  0.24999913  0.24999913  0.24999912  1
  Cs  Cs1  1  0.74999943  0.74999943  0.74999942  1
  Hf  Hf2  1  0.00000000  0.00000000  0.00000000  1
  Hf  Hf3  1  0.50000030  0.50000030  0.50000030  1
  O  O4  1  0.25054657  0.75000010  0.24945309  1
  O  O5  1  0.75054822  0.74945097  0.24999886  1
  O  O6  1  0.75000117  0.24945040  0.25054819  1
  O  O7  1  0.24999875  0.75054952  0.74945173  1
  O  O8  1  0.24945102  0.25054826  0.75000037  1
  O  O9  1  0.74945238  0.24999886  0.75054875  1
