# generated using pymatgen
data_NdTcO3
_symmetry_space_group_name_H-M   'P 1'
_cell_length_a   5.39033236
_cell_length_b   5.91754576
_cell_length_c   7.80489232
_cell_angle_alpha   90.00000000
_cell_angle_beta   90.00000000
_cell_angle_gamma   90.00000000
_symmetry_Int_Tables_number   1
_chemical_formula_structural   NdTcO3
_chemical_formula_sum   'Nd4 Tc4 O12'
_cell_volume   248.95685235
_cell_formula_units_Z   4
loop_
 _symmetry_equiv_pos_site_id
 _symmetry_equiv_pos_as_xyz
  1  'x, y, z'
loop_
 _atom_site_type_symbol
 _atom_site_label
 _atom_site_symmetry_multiplicity
 _atom_site_fract_x
 _atom_site_fract_y
 _atom_site_fract_z
 _atom_site_occupancy
  Nd  Nd0  1  0.97040584  0.07770451  0.24999961  1
  Nd  Nd1  1  0.52959443  0.57770571  0.24999961  1
  Nd  Nd2  1  0.47040513  0.42229500  0.75000010  1
  Nd  Nd3  1  0.02959372  0.92229452  0.75000010  1
  O  O4  1  0.68478338  0.30205259  0.05125888  1
  O  O5  1  0.81521689  0.80205210  0.05125888  1
  O  O6  1  0.11683881  0.46100531  0.24999961  1
  O  O7  1  0.38316005  0.96100651  0.24999961  1
  O  O8  1  0.68478338  0.30205259  0.44874162  1
  O  O9  1  0.81521689  0.80205210  0.44874162  1
  O  O10  1  0.18478267  0.19794693  0.55125937  1
  O  O11  1  0.31521618  0.69794813  0.55125937  1
  O  O12  1  0.61683952  0.03899421  0.75000010  1
  O  O13  1  0.88316076  0.53899372  0.75000010  1
  O  O14  1  0.18478267  0.19794693  0.94874083  1
  O  O15  1  0.31521618  0.69794813  0.94874083  1
  Tc  Tc16  1  0.50000071  0.00000000  0.00000000  1
  Tc  Tc17  1  0.00000000  0.49999951  0.00000000  1
  Tc  Tc18  1  0.50000071  0.00000000  0.50000049  1
  Tc  Tc19  1  0.00000000  0.49999951  0.50000049  1
