# generated using pymatgen
data_MnAgO3
_symmetry_space_group_name_H-M   'P 1'
_cell_length_a   5.32762771
_cell_length_b   5.33315563
_cell_length_c   7.35632342
_cell_angle_alpha   90.00000000
_cell_angle_beta   90.00000000
_cell_angle_gamma   90.00000000
_symmetry_Int_Tables_number   1
_chemical_formula_structural   MnAgO3
_chemical_formula_sum   'Mn4 Ag4 O12'
_cell_volume   209.01571514
_cell_formula_units_Z   4
loop_
 _symmetry_equiv_pos_site_id
 _symmetry_equiv_pos_as_xyz
  1  'x, y, z'
loop_
 _atom_site_type_symbol
 _atom_site_label
 _atom_site_symmetry_multiplicity
 _atom_site_fract_x
 _atom_site_fract_y
 _atom_site_fract_z
 _atom_site_occupancy
  Ag  Ag0  1  0.00126510  0.00901343  0.24999988  1
  Ag  Ag1  1  0.49873605  0.50901384  0.24999988  1
  Ag  Ag2  1  0.50126438  0.49098886  0.74999965  1
  Ag  Ag3  1  0.99873677  0.99098739  0.74999965  1
  Mn  Mn4  1  0.49999928  0.00000000  0.00000000  1
  Mn  Mn5  1  0.00000000  0.50000041  0.00000000  1
  Mn  Mn6  1  0.49999928  0.00000000  0.49999977  1
  Mn  Mn7  1  0.00000000  0.50000041  0.49999977  1
  O  O8  1  0.66962449  0.32988724  0.02046946  1
  O  O9  1  0.83037334  0.82988765  0.02046946  1
  O  O10  1  0.05601930  0.47553834  0.24999988  1
  O  O11  1  0.44397997  0.97553875  0.24999988  1
  O  O12  1  0.66962449  0.32988724  0.47953166  1
  O  O13  1  0.83037334  0.82988765  0.47953166  1
  O  O14  1  0.16962522  0.17011317  0.52046923  1
  O  O15  1  0.33037406  0.67011358  0.52046923  1
  O  O16  1  0.55602046  0.02446207  0.74999965  1
  O  O17  1  0.94397925  0.52446060  0.74999965  1
  O  O18  1  0.16962522  0.17011317  0.97953007  1
  O  O19  1  0.33037406  0.67011358  0.97953007  1
