# generated using pymatgen
data_KW3Cl
_symmetry_space_group_name_H-M   'P 1'
_cell_length_a   4.57010780
_cell_length_b   4.57010780
_cell_length_c   4.57010780
_cell_angle_alpha   90.00000000
_cell_angle_beta   90.00000000
_cell_angle_gamma   90.00000000
_symmetry_Int_Tables_number   1
_chemical_formula_structural   KW3Cl
_chemical_formula_sum   'K1 W3 Cl1'
_cell_volume   95.45074740
_cell_formula_units_Z   1
loop_
 _symmetry_equiv_pos_site_id
 _symmetry_equiv_pos_as_xyz
  1  'x, y, z'
loop_
 _atom_site_type_symbol
 _atom_site_label
 _atom_site_symmetry_multiplicity
 _atom_site_fract_x
 _atom_site_fract_y
 _atom_site_fract_z
 _atom_site_occupancy
  Cl  Cl0  1  0.00000000  0.00000000  0.00000000  1
  K  K1  1  0.50000000  0.50000000  0.50000000  1
  W  W2  1  0.00000000  0.00000000  0.50000000  1
  W  W3  1  0.00000000  0.50000000  0.00000000  1
  W  W4  1  0.50000000  0.00000000  0.00000000  1
