# generated using pymatgen
data_CuReO3
_symmetry_space_group_name_H-M   'P 1'
_cell_length_a   5.17779286
_cell_length_b   5.32540010
_cell_length_c   7.44694696
_cell_angle_alpha   90.00000000
_cell_angle_beta   90.00000000
_cell_angle_gamma   90.00000000
_symmetry_Int_Tables_number   1
_chemical_formula_structural   CuReO3
_chemical_formula_sum   'Cu4 Re4 O12'
_cell_volume   205.34076503
_cell_formula_units_Z   4
loop_
 _symmetry_equiv_pos_site_id
 _symmetry_equiv_pos_as_xyz
  1  'x, y, z'
loop_
 _atom_site_type_symbol
 _atom_site_label
 _atom_site_symmetry_multiplicity
 _atom_site_fract_x
 _atom_site_fract_y
 _atom_site_fract_z
 _atom_site_occupancy
  Cu  Cu0  1  0.99065183  0.01009314  0.24999909  1
  Cu  Cu1  1  0.50934637  0.51009313  0.24999909  1
  Cu  Cu2  1  0.49065308  0.48990685  0.74999997  1
  Cu  Cu3  1  0.00934761  0.98990684  0.74999997  1
  O  O4  1  0.69126945  0.30390393  0.05669706  1
  O  O5  1  0.80872876  0.80390392  0.05669706  1
  O  O6  1  0.12490457  0.47923348  0.24999909  1
  O  O7  1  0.37509612  0.97923347  0.24999909  1
  O  O8  1  0.69126945  0.30390393  0.44330247  1
  O  O9  1  0.80872876  0.80390392  0.44330247  1
  O  O10  1  0.19127069  0.19609794  0.55669659  1
  O  O11  1  0.30873000  0.69609793  0.55669659  1
  O  O12  1  0.62490333  0.02076651  0.74999997  1
  O  O13  1  0.87509681  0.52076651  0.74999997  1
  O  O14  1  0.19127069  0.19609794  0.94330335  1
  O  O15  1  0.30873000  0.69609793  0.94330335  1
  Re  Re16  1  0.49999876  0.00000000  0.00000000  1
  Re  Re17  1  0.00000000  0.49999999  0.00000000  1
  Re  Re18  1  0.49999876  0.00000000  0.49999953  1
  Re  Re19  1  0.00000000  0.49999999  0.49999953  1
