# generated using pymatgen
data_AcCdO3
_symmetry_space_group_name_H-M   'P 1'
_cell_length_a   5.84035352
_cell_length_b   6.19896324
_cell_length_c   8.33809437
_cell_angle_alpha   90.00000000
_cell_angle_beta   90.00000000
_cell_angle_gamma   90.00000000
_symmetry_Int_Tables_number   1
_chemical_formula_structural   AcCdO3
_chemical_formula_sum   'Ac4 Cd4 O12'
_cell_volume   301.87350923
_cell_formula_units_Z   4
loop_
 _symmetry_equiv_pos_site_id
 _symmetry_equiv_pos_as_xyz
  1  'x, y, z'
loop_
 _atom_site_type_symbol
 _atom_site_label
 _atom_site_symmetry_multiplicity
 _atom_site_fract_x
 _atom_site_fract_y
 _atom_site_fract_z
 _atom_site_occupancy
  Ac  Ac0  1  0.98343191  0.06578035  0.24999957  1
  Ac  Ac1  1  0.51656805  0.56578009  0.24999957  1
  Ac  Ac2  1  0.48343306  0.43421938  0.74999991  1
  Ac  Ac3  1  0.01656749  0.93421912  0.74999991  1
  Cd  Cd4  1  0.50000056  0.00000000  0.00000000  1
  Cd  Cd5  1  0.00000000  0.49999974  0.00000000  1
  Cd  Cd6  1  0.50000056  0.00000000  0.50000034  1
  Cd  Cd7  1  0.00000000  0.49999974  0.50000034  1
  O  O8  1  0.69762729  0.30527685  0.05546471  1
  O  O9  1  0.80237437  0.80527659  0.05546471  1
  O  O10  1  0.10830338  0.45812983  0.24999957  1
  O  O11  1  0.39169547  0.95812957  0.24999957  1
  O  O12  1  0.69762729  0.30527685  0.44453563  1
  O  O13  1  0.80237437  0.80527659  0.44453563  1
  O  O14  1  0.19762502  0.19472450  0.55546265  1
  O  O15  1  0.30237553  0.69472424  0.55546265  1
  O  O16  1  0.60830393  0.04186990  0.74999991  1
  O  O17  1  0.89169773  0.54186964  0.74999991  1
  O  O18  1  0.19762502  0.19472450  0.94453596  1
  O  O19  1  0.30237553  0.69472424  0.94453596  1
