# generated using pymatgen
data_HgSbO3
_symmetry_space_group_name_H-M   'P 1'
_cell_length_a   5.69449024
_cell_length_b   5.77070296
_cell_length_c   8.20730648
_cell_angle_alpha   90.00000000
_cell_angle_beta   90.00000000
_cell_angle_gamma   90.00000000
_symmetry_Int_Tables_number   1
_chemical_formula_structural   HgSbO3
_chemical_formula_sum   'Hg4 Sb4 O12'
_cell_volume   269.70203526
_cell_formula_units_Z   4
loop_
 _symmetry_equiv_pos_site_id
 _symmetry_equiv_pos_as_xyz
  1  'x, y, z'
loop_
 _atom_site_type_symbol
 _atom_site_label
 _atom_site_symmetry_multiplicity
 _atom_site_fract_x
 _atom_site_fract_y
 _atom_site_fract_z
 _atom_site_occupancy
  Hg  Hg0  1  0.99127222  0.03501480  0.25000041  1
  Hg  Hg1  1  0.50872684  0.53501628  0.25000041  1
  Hg  Hg2  1  0.49127488  0.46498495  0.75000002  1
  Hg  Hg3  1  0.00872598  0.96498469  0.75000002  1
  O  O4  1  0.69755498  0.29966886  0.05911440  1
  O  O5  1  0.80244408  0.79966861  0.05911440  1
  O  O6  1  0.10823620  0.44586076  0.25000041  1
  O  O7  1  0.39176465  0.94586050  0.25000041  1
  O  O8  1  0.69755498  0.29966886  0.44088642  1
  O  O9  1  0.80244408  0.79966861  0.44088642  1
  O  O10  1  0.19755412  0.20033261  0.55911401  1
  O  O11  1  0.30244323  0.70033236  0.55911401  1
  O  O12  1  0.60823530  0.05413898  0.75000002  1
  O  O13  1  0.89176551  0.55414046  0.75000002  1
  O  O14  1  0.19755412  0.20033261  0.94088603  1
  O  O15  1  0.30244323  0.70033236  0.94088603  1
  Sb  Sb16  1  0.50000086  0.00000000  0.00000000  1
  Sb  Sb17  1  0.00000000  0.49999974  0.00000000  1
  Sb  Sb18  1  0.50000086  0.00000000  0.49999961  1
  Sb  Sb19  1  0.00000000  0.49999974  0.49999961  1
