# generated using pymatgen
data_AcAsO3
_symmetry_space_group_name_H-M   'P 1'
_cell_length_a   4.13272307
_cell_length_b   4.13272307
_cell_length_c   4.25048028
_cell_angle_alpha   90.00000000
_cell_angle_beta   90.00000000
_cell_angle_gamma   90.00000000
_symmetry_Int_Tables_number   1
_chemical_formula_structural   AcAsO3
_chemical_formula_sum   'Ac1 As1 O3'
_cell_volume   72.59565287
_cell_formula_units_Z   1
loop_
 _symmetry_equiv_pos_site_id
 _symmetry_equiv_pos_as_xyz
  1  'x, y, z'
loop_
 _atom_site_type_symbol
 _atom_site_label
 _atom_site_symmetry_multiplicity
 _atom_site_fract_x
 _atom_site_fract_y
 _atom_site_fract_z
 _atom_site_occupancy
  Ac  Ac0  1  0.00000000  0.00000000  0.00185156  1
  As  As1  1  0.49999721  0.49999721  0.55891331  1
  O  O2  1  0.49999721  0.49999721  0.12375072  1
  O  O3  1  0.49999721  0.00000000  0.60774073  1
  O  O4  1  0.00000000  0.49999721  0.60774073  1
