# generated using pymatgen
data_BiRuO3
_symmetry_space_group_name_H-M   'P 1'
_cell_length_a   5.39830312
_cell_length_b   5.84743072
_cell_length_c   7.82490550
_cell_angle_alpha   90.00000000
_cell_angle_beta   90.00000000
_cell_angle_gamma   90.00000000
_symmetry_Int_Tables_number   1
_chemical_formula_structural   BiRuO3
_chemical_formula_sum   'Bi4 Ru4 O12'
_cell_volume   247.00255935
_cell_formula_units_Z   4
loop_
 _symmetry_equiv_pos_site_id
 _symmetry_equiv_pos_as_xyz
  1  'x, y, z'
loop_
 _atom_site_type_symbol
 _atom_site_label
 _atom_site_symmetry_multiplicity
 _atom_site_fract_x
 _atom_site_fract_y
 _atom_site_fract_z
 _atom_site_occupancy
  Bi  Bi0  1  0.98191226  0.05713792  0.25000046  1
  Bi  Bi1  1  0.51808688  0.55713871  0.25000046  1
  Bi  Bi2  1  0.48191255  0.44286117  0.75000011  1
  Bi  Bi3  1  0.01808717  0.94286196  0.75000011  1
  O  O4  1  0.67926715  0.30884333  0.04691942  1
  O  O5  1  0.82073198  0.80884413  0.04691942  1
  O  O6  1  0.11524733  0.45648596  0.25000046  1
  O  O7  1  0.38475239  0.95648504  0.25000046  1
  O  O8  1  0.67926715  0.30884333  0.45308151  1
  O  O9  1  0.82073198  0.80884413  0.45308151  1
  O  O10  1  0.17926744  0.19115575  0.54691906  1
  O  O11  1  0.32073227  0.69115654  0.54691906  1
  O  O12  1  0.61524704  0.04351484  0.75000011  1
  O  O13  1  0.88475395  0.54351392  0.75000011  1
  O  O14  1  0.17926744  0.19115575  0.95308116  1
  O  O15  1  0.32073227  0.69115654  0.95308116  1
  Ru  Ru16  1  0.49999971  0.00000000  0.00000000  1
  Ru  Ru17  1  0.00000000  0.50000079  0.00000000  1
  Ru  Ru18  1  0.49999971  0.00000000  0.49999965  1
  Ru  Ru19  1  0.00000000  0.50000079  0.49999965  1
