# generated using pymatgen
data_AcPbO3
_symmetry_space_group_name_H-M   'P 1'
_cell_length_a   6.03367172
_cell_length_b   6.37691449
_cell_length_c   8.70067153
_cell_angle_alpha   90.00000000
_cell_angle_beta   90.00000000
_cell_angle_gamma   90.00000000
_symmetry_Int_Tables_number   1
_chemical_formula_structural   AcPbO3
_chemical_formula_sum   'Ac4 Pb4 O12'
_cell_volume   334.76885309
_cell_formula_units_Z   4
loop_
 _symmetry_equiv_pos_site_id
 _symmetry_equiv_pos_as_xyz
  1  'x, y, z'
loop_
 _atom_site_type_symbol
 _atom_site_label
 _atom_site_symmetry_multiplicity
 _atom_site_fract_x
 _atom_site_fract_y
 _atom_site_fract_z
 _atom_site_occupancy
  Ac  Ac0  1  0.98158141  0.06211938  0.24999909  1
  Ac  Ac1  1  0.51842065  0.56211982  0.24999909  1
  Ac  Ac2  1  0.48157907  0.43788105  0.75000073  1
  Ac  Ac3  1  0.01841830  0.93787991  0.75000073  1
  O  O4  1  0.69102699  0.30505662  0.06722470  1
  O  O5  1  0.80897341  0.80505705  0.06722470  1
  O  O6  1  0.13616087  0.43654655  0.24999909  1
  O  O7  1  0.36383981  0.93654541  0.24999909  1
  O  O8  1  0.69102699  0.30505662  0.43277579  1
  O  O9  1  0.80897341  0.80505705  0.43277579  1
  O  O10  1  0.19102796  0.19494224  0.56722518  1
  O  O11  1  0.30897273  0.69494267  0.56722518  1
  O  O12  1  0.63615990  0.06345389  0.75000073  1
  O  O13  1  0.86383884  0.56345432  0.75000073  1
  O  O14  1  0.19102796  0.19494224  0.93277398  1
  O  O15  1  0.30897273  0.69494267  0.93277398  1
  Pb  Pb16  1  0.49999903  0.00000000  0.00000000  1
  Pb  Pb17  1  0.00000000  0.49999886  0.00000000  1
  Pb  Pb18  1  0.49999903  0.00000000  0.50000049  1
  Pb  Pb19  1  0.00000000  0.49999886  0.50000049  1
