# generated using pymatgen
data_CsAcO3
_symmetry_space_group_name_H-M   'P 1'
_cell_length_a   6.54197668
_cell_length_b   6.54197668
_cell_length_c   6.54197696
_cell_angle_alpha   60.00875986
_cell_angle_beta   60.00875986
_cell_angle_gamma   60.00875272
_symmetry_Int_Tables_number   1
_chemical_formula_structural   CsAcO3
_chemical_formula_sum   'Cs2 Ac2 O6'
_cell_volume   198.01505617
_cell_formula_units_Z   2
loop_
 _symmetry_equiv_pos_site_id
 _symmetry_equiv_pos_as_xyz
  1  'x, y, z'
loop_
 _atom_site_type_symbol
 _atom_site_label
 _atom_site_symmetry_multiplicity
 _atom_site_fract_x
 _atom_site_fract_y
 _atom_site_fract_z
 _atom_site_occupancy
  Ac  Ac0  1  0.00000000  0.00000000  0.00000000  1
  Ac  Ac1  1  0.49999986  0.49999986  0.49999986  1
  Cs  Cs2  1  0.24999993  0.24999993  0.24999993  1
  Cs  Cs3  1  0.74999980  0.74999980  0.74999980  1
  O  O4  1  0.75000201  0.25103842  0.24896048  1
  O  O5  1  0.74896108  0.75103969  0.24999937  1
  O  O6  1  0.24896116  0.75000030  0.25103945  1
  O  O7  1  0.75103919  0.25000005  0.74896090  1
  O  O8  1  0.25103927  0.24896066  0.75000098  1
  O  O9  1  0.24999923  0.74896282  0.75103811  1
