# generated using pymatgen
data_ThScO3
_symmetry_space_group_name_H-M   'P 1'
_cell_length_a   5.65509742
_cell_length_b   6.08960244
_cell_length_c   7.84707903
_cell_angle_alpha   90.00000000
_cell_angle_beta   90.00000000
_cell_angle_gamma   90.00000000
_symmetry_Int_Tables_number   1
_chemical_formula_structural   ThScO3
_chemical_formula_sum   'Th4 Sc4 O12'
_cell_volume   270.23217568
_cell_formula_units_Z   4
loop_
 _symmetry_equiv_pos_site_id
 _symmetry_equiv_pos_as_xyz
  1  'x, y, z'
loop_
 _atom_site_type_symbol
 _atom_site_label
 _atom_site_symmetry_multiplicity
 _atom_site_fract_x
 _atom_site_fract_y
 _atom_site_fract_z
 _atom_site_occupancy
  O  O0  1  0.67935523  0.31040943  0.05799355  1
  O  O1  1  0.82064369  0.81040923  0.05799355  1
  O  O2  1  0.14129200  0.44669419  0.25000003  1
  O  O3  1  0.35870823  0.94669399  0.25000003  1
  O  O4  1  0.67935523  0.31040943  0.44200651  1
  O  O5  1  0.82064369  0.81040923  0.44200651  1
  O  O6  1  0.17935500  0.18959037  0.55799362  1
  O  O7  1  0.32064523  0.68959017  0.55799362  1
  O  O8  1  0.64129222  0.05330726  0.75000009  1
  O  O9  1  0.85870846  0.55330706  0.75000009  1
  O  O10  1  0.17935500  0.18959037  0.94200657  1
  O  O11  1  0.32064523  0.68959017  0.94200657  1
  Sc  Sc12  1  0.50000023  0.00000000  0.00000000  1
  Sc  Sc13  1  0.00000000  0.49999980  0.00000000  1
  Sc  Sc14  1  0.50000023  0.00000000  0.50000006  1
  Sc  Sc15  1  0.00000000  0.49999980  0.50000006  1
  Th  Th16  1  0.97726345  0.08504660  0.25000003  1
  Th  Th17  1  0.52273724  0.58504804  0.25000003  1
  Th  Th18  1  0.47726322  0.41495320  0.75000009  1
  Th  Th19  1  0.02273701  0.91495300  0.75000009  1
