# generated using pymatgen
data_LiHfO3
_symmetry_space_group_name_H-M   'P 1'
_cell_length_a   5.00080605
_cell_length_b   5.53511538
_cell_length_c   6.75841115
_cell_angle_alpha   90.00000000
_cell_angle_beta   90.00000000
_cell_angle_gamma   90.00000000
_symmetry_Int_Tables_number   1
_chemical_formula_structural   LiHfO3
_chemical_formula_sum   'Li4 Hf4 O12'
_cell_volume   187.07308081
_cell_formula_units_Z   4
loop_
 _symmetry_equiv_pos_site_id
 _symmetry_equiv_pos_as_xyz
  1  'x, y, z'
loop_
 _atom_site_type_symbol
 _atom_site_label
 _atom_site_symmetry_multiplicity
 _atom_site_fract_x
 _atom_site_fract_y
 _atom_site_fract_z
 _atom_site_occupancy
  Hf  Hf0  1  0.97028958  0.11002300  0.24999959  1
  Hf  Hf1  1  0.52971061  0.61002342  0.24999959  1
  Hf  Hf2  1  0.47028818  0.38997742  0.74999876  1
  Hf  Hf3  1  0.02971121  0.88997603  0.74999876  1
  Li  Li4  1  0.49999939  0.00000000  0.00000000  1
  Li  Li5  1  0.00000000  0.50000042  0.00000000  1
  Li  Li6  1  0.49999939  0.00000000  0.50000065  1
  Li  Li7  1  0.00000000  0.50000042  0.50000065  1
  O  O8  1  0.67559309  0.32540966  0.07089980  1
  O  O9  1  0.82440710  0.82541007  0.07089980  1
  O  O10  1  0.17261417  0.43581205  0.24999959  1
  O  O11  1  0.32738722  0.93581247  0.24999959  1
  O  O12  1  0.67559309  0.32540966  0.42910085  1
  O  O13  1  0.82440710  0.82541007  0.42910085  1
  O  O14  1  0.17559369  0.17458895  0.57089898  1
  O  O15  1  0.32440570  0.67458937  0.57089898  1
  O  O16  1  0.67261357  0.06418656  0.74999876  1
  O  O17  1  0.82738662  0.56418697  0.74999876  1
  O  O18  1  0.17559369  0.17458895  0.92910151  1
  O  O19  1  0.32440570  0.67458937  0.92910151  1
