# generated using pymatgen
data_NdAuO3
_symmetry_space_group_name_H-M   'P 1'
_cell_length_a   5.68190331
_cell_length_b   6.52533485
_cell_length_c   7.37688599
_cell_angle_alpha   90.00000000
_cell_angle_beta   90.00000000
_cell_angle_gamma   90.00000000
_symmetry_Int_Tables_number   1
_chemical_formula_structural   NdAuO3
_chemical_formula_sum   'Nd4 Au4 O12'
_cell_volume   273.50779815
_cell_formula_units_Z   4
loop_
 _symmetry_equiv_pos_site_id
 _symmetry_equiv_pos_as_xyz
  1  'x, y, z'
loop_
 _atom_site_type_symbol
 _atom_site_label
 _atom_site_symmetry_multiplicity
 _atom_site_fract_x
 _atom_site_fract_y
 _atom_site_fract_z
 _atom_site_occupancy
  Au  Au0  1  0.49999971  0.00000000  0.00000000  1
  Au  Au1  1  0.00000000  0.50000039  0.00000000  1
  Au  Au2  1  0.49999971  0.00000000  0.49999959  1
  Au  Au3  1  0.00000000  0.50000039  0.49999959  1
  Nd  Nd4  1  0.96783942  0.10041477  0.24999980  1
  Nd  Nd5  1  0.53216147  0.60041516  0.24999980  1
  Nd  Nd6  1  0.46783971  0.39958562  0.74999939  1
  Nd  Nd7  1  0.03216000  0.89958449  0.74999939  1
  O  O8  1  0.69781546  0.34974144  0.05544616  1
  O  O9  1  0.80218542  0.84974183  0.05544616  1
  O  O10  1  0.14657236  0.43791469  0.24999980  1
  O  O11  1  0.35342734  0.93791509  0.24999980  1
  O  O12  1  0.69781546  0.34974144  0.44455343  1
  O  O13  1  0.80218542  0.84974183  0.44455343  1
  O  O14  1  0.19781576  0.15025742  0.55544711  1
  O  O15  1  0.30218571  0.65025782  0.55544711  1
  O  O16  1  0.64657207  0.06208570  0.74999939  1
  O  O17  1  0.85342705  0.56208610  0.74999939  1
  O  O18  1  0.19781576  0.15025742  0.94455303  1
  O  O19  1  0.30218571  0.65025782  0.94455303  1
