# generated using pymatgen
data_CeZnO3
_symmetry_space_group_name_H-M   'P 1'
_cell_length_a   5.48416443
_cell_length_b   5.69951304
_cell_length_c   7.82448476
_cell_angle_alpha   90.00000000
_cell_angle_beta   90.00000000
_cell_angle_gamma   90.00000000
_symmetry_Int_Tables_number   1
_chemical_formula_structural   CeZnO3
_chemical_formula_sum   'Ce4 Zn4 O12'
_cell_volume   244.57044186
_cell_formula_units_Z   4
loop_
 _symmetry_equiv_pos_site_id
 _symmetry_equiv_pos_as_xyz
  1  'x, y, z'
loop_
 _atom_site_type_symbol
 _atom_site_label
 _atom_site_symmetry_multiplicity
 _atom_site_fract_x
 _atom_site_fract_y
 _atom_site_fract_z
 _atom_site_occupancy
  Ce  Ce0  1  0.98704189  0.05664519  0.24999985  1
  Ce  Ce1  1  0.51295873  0.55664580  0.24999985  1
  Ce  Ce2  1  0.48704229  0.44335542  0.75000082  1
  Ce  Ce3  1  0.01295913  0.94335428  0.75000082  1
  O  O4  1  0.71208842  0.29646919  0.04099439  1
  O  O5  1  0.78791219  0.79646980  0.04099439  1
  O  O6  1  0.07637080  0.48702582  0.24999985  1
  O  O7  1  0.42362880  0.98702467  0.24999985  1
  O  O8  1  0.71208842  0.29646919  0.45900530  1
  O  O9  1  0.78791219  0.79646980  0.45900530  1
  O  O10  1  0.21208883  0.20353142  0.54099537  1
  O  O11  1  0.28791077  0.70353203  0.54099537  1
  O  O12  1  0.57637039  0.01297479  0.75000082  1
  O  O13  1  0.92363022  0.51297365  0.75000082  1
  O  O14  1  0.21208883  0.20353142  0.95900628  1
  O  O15  1  0.28791077  0.70353203  0.95900628  1
  Zn  Zn16  1  0.49999960  0.00000000  0.00000000  1
  Zn  Zn17  1  0.00000000  0.50000061  0.00000000  1
  Zn  Zn18  1  0.49999960  0.00000000  0.49999970  1
  Zn  Zn19  1  0.00000000  0.50000061  0.49999970  1
