# generated using pymatgen
data_SmTcO3
_symmetry_space_group_name_H-M   'P 1'
_cell_length_a   3.95796681
_cell_length_b   3.95796681
_cell_length_c   4.06470024
_cell_angle_alpha   90.00000000
_cell_angle_beta   90.00000000
_cell_angle_gamma   90.00000000
_symmetry_Int_Tables_number   1
_chemical_formula_structural   SmTcO3
_chemical_formula_sum   'Sm1 Tc1 O3'
_cell_volume   63.67556664
_cell_formula_units_Z   1
loop_
 _symmetry_equiv_pos_site_id
 _symmetry_equiv_pos_as_xyz
  1  'x, y, z'
loop_
 _atom_site_type_symbol
 _atom_site_label
 _atom_site_symmetry_multiplicity
 _atom_site_fract_x
 _atom_site_fract_y
 _atom_site_fract_z
 _atom_site_occupancy
  O  O0  1  0.49999914  0.49999914  0.08739636  1
  O  O1  1  0.49999914  0.00000000  0.62438553  1
  O  O2  1  0.00000000  0.49999914  0.62438553  1
  Sm  Sm3  1  0.00000000  0.00000000  0.98040692  1
  Tc  Tc4  1  0.49999914  0.49999914  0.58342556  1
