# generated using pymatgen
data_SmTcO3
_symmetry_space_group_name_H-M   'P 1'
_cell_length_a   5.34040770
_cell_length_b   5.90222845
_cell_length_c   7.71560613
_cell_angle_alpha   90.00000000
_cell_angle_beta   90.00000000
_cell_angle_gamma   90.00000000
_symmetry_Int_Tables_number   1
_chemical_formula_structural   SmTcO3
_chemical_formula_sum   'Sm4 Tc4 O12'
_cell_volume   243.19826808
_cell_formula_units_Z   4
loop_
 _symmetry_equiv_pos_site_id
 _symmetry_equiv_pos_as_xyz
  1  'x, y, z'
loop_
 _atom_site_type_symbol
 _atom_site_label
 _atom_site_symmetry_multiplicity
 _atom_site_fract_x
 _atom_site_fract_y
 _atom_site_fract_z
 _atom_site_occupancy
  O  O0  1  0.68154347  0.30386320  0.05407741  1
  O  O1  1  0.81845624  0.80386417  0.05407741  1
  O  O2  1  0.12725995  0.45489937  0.24999980  1
  O  O3  1  0.37274120  0.95489865  0.24999980  1
  O  O4  1  0.68154347  0.30386320  0.44592219  1
  O  O5  1  0.81845624  0.80386417  0.44592219  1
  O  O6  1  0.18154419  0.19613609  0.55407701  1
  O  O7  1  0.31845696  0.69613707  0.55407701  1
  O  O8  1  0.62725923  0.04509991  0.74999940  1
  O  O9  1  0.87274048  0.54510089  0.74999940  1
  O  O10  1  0.18154419  0.19613609  0.94592309  1
  O  O11  1  0.31845696  0.69613707  0.94592309  1
  Sm  Sm12  1  0.96700857  0.08125914  0.24999980  1
  Sm  Sm13  1  0.53299114  0.58125842  0.24999980  1
  Sm  Sm14  1  0.46700929  0.41874184  0.74999940  1
  Sm  Sm15  1  0.03299186  0.91874112  0.74999940  1
  Tc  Tc16  1  0.49999928  0.00000000  0.00000000  1
  Tc  Tc17  1  0.00000000  0.49999928  0.00000000  1
  Tc  Tc18  1  0.49999928  0.00000000  0.49999960  1
  Tc  Tc19  1  0.00000000  0.49999928  0.49999960  1
