# generated using pymatgen
data_AcInO3
_symmetry_space_group_name_H-M   'P 1'
_cell_length_a   5.85684502
_cell_length_b   6.03548000
_cell_length_c   8.35938123
_cell_angle_alpha   90.00000000
_cell_angle_beta   90.00000000
_cell_angle_gamma   90.00000000
_symmetry_Int_Tables_number   1
_chemical_formula_structural   AcInO3
_chemical_formula_sum   'Ac4 In4 O12'
_cell_volume   295.49468879
_cell_formula_units_Z   4
loop_
 _symmetry_equiv_pos_site_id
 _symmetry_equiv_pos_as_xyz
  1  'x, y, z'
loop_
 _atom_site_type_symbol
 _atom_site_label
 _atom_site_symmetry_multiplicity
 _atom_site_fract_x
 _atom_site_fract_y
 _atom_site_fract_z
 _atom_site_occupancy
  Ac  Ac0  1  0.98779633  0.04982868  0.24999936  1
  Ac  Ac1  1  0.51220239  0.54982868  0.24999936  1
  Ac  Ac2  1  0.48779505  0.45017298  0.74999929  1
  Ac  Ac3  1  0.01220452  0.95017132  0.74999929  1
  In  In4  1  0.49999957  0.00000000  0.00000000  1
  In  In5  1  0.00000000  0.50000000  0.00000000  1
  In  In6  1  0.49999957  0.00000000  0.49999993  1
  In  In7  1  0.00000000  0.50000000  0.49999993  1
  O  O8  1  0.69978802  0.29850650  0.05290224  1
  O  O9  1  0.80021069  0.79850650  0.05290224  1
  O  O10  1  0.09953994  0.46265251  0.24999936  1
  O  O11  1  0.40045792  0.96265251  0.24999936  1
  O  O12  1  0.69978802  0.29850650  0.44709769  1
  O  O13  1  0.80021069  0.79850650  0.44709769  1
  O  O14  1  0.19979016  0.20149350  0.55290097  1
  O  O15  1  0.30020941  0.70149184  0.55290097  1
  O  O16  1  0.59954293  0.03734914  0.74999929  1
  O  O17  1  0.90045750  0.53734748  0.74999929  1
  O  O18  1  0.19979016  0.20149350  0.94709881  1
  O  O19  1  0.30020941  0.70149184  0.94709881  1
