# generated using pymatgen
data_CdPtO3
_symmetry_space_group_name_H-M   'P 1'
_cell_length_a   5.41818894
_cell_length_b   5.55768391
_cell_length_c   7.71685686
_cell_angle_alpha   90.00000000
_cell_angle_beta   90.00000000
_cell_angle_gamma   90.00000000
_symmetry_Int_Tables_number   1
_chemical_formula_structural   CdPtO3
_chemical_formula_sum   'Cd4 Pt4 O12'
_cell_volume   232.37448088
_cell_formula_units_Z   4
loop_
 _symmetry_equiv_pos_site_id
 _symmetry_equiv_pos_as_xyz
  1  'x, y, z'
loop_
 _atom_site_type_symbol
 _atom_site_label
 _atom_site_symmetry_multiplicity
 _atom_site_fract_x
 _atom_site_fract_y
 _atom_site_fract_z
 _atom_site_occupancy
  Cd  Cd0  1  0.98428830  0.05081073  0.24999945  1
  Cd  Cd1  1  0.51571291  0.55081038  0.24999945  1
  Cd  Cd2  1  0.48428728  0.44918891  0.74999966  1
  Cd  Cd3  1  0.01571189  0.94918856  0.74999966  1
  O  O4  1  0.70323498  0.29337761  0.06919268  1
  O  O5  1  0.79676439  0.79337905  0.06919268  1
  O  O6  1  0.12056796  0.44136191  0.24999945  1
  O  O7  1  0.37943306  0.94136336  0.24999945  1
  O  O8  1  0.70323498  0.29337761  0.43080623  1
  O  O9  1  0.79676439  0.79337905  0.43080623  1
  O  O10  1  0.20323581  0.20662204  0.56919288  1
  O  O11  1  0.29676521  0.70662349  0.56919288  1
  O  O12  1  0.62056714  0.05863774  0.74999966  1
  O  O13  1  0.87943223  0.55863738  0.74999966  1
  O  O14  1  0.20323581  0.20662204  0.93080643  1
  O  O15  1  0.29676521  0.70662349  0.93080643  1
  Pt  Pt16  1  0.49999917  0.00000000  0.00000000  1
  Pt  Pt17  1  0.00000000  0.49999965  0.00000000  1
  Pt  Pt18  1  0.49999917  0.00000000  0.50000020  1
  Pt  Pt19  1  0.00000000  0.49999965  0.50000020  1
