# generated using pymatgen
data_PmPdO3
_symmetry_space_group_name_H-M   'P 1'
_cell_length_a   5.48630188
_cell_length_b   5.93432592
_cell_length_c   7.67170247
_cell_angle_alpha   90.00000000
_cell_angle_beta   90.00000000
_cell_angle_gamma   90.00000000
_symmetry_Int_Tables_number   1
_chemical_formula_structural   PmPdO3
_chemical_formula_sum   'Pm4 Pd4 O12'
_cell_volume   249.77147944
_cell_formula_units_Z   4
loop_
 _symmetry_equiv_pos_site_id
 _symmetry_equiv_pos_as_xyz
  1  'x, y, z'
loop_
 _atom_site_type_symbol
 _atom_site_label
 _atom_site_symmetry_multiplicity
 _atom_site_fract_x
 _atom_site_fract_y
 _atom_site_fract_z
 _atom_site_occupancy
  O  O0  1  0.68611791  0.30594713  0.05546487  1
  O  O1  1  0.81388157  0.80594663  0.05546487  1
  O  O2  1  0.12497489  0.45448801  0.25000057  1
  O  O3  1  0.37502493  0.95448752  0.25000057  1
  O  O4  1  0.68611791  0.30594713  0.44453497  1
  O  O5  1  0.81388157  0.80594663  0.44453497  1
  O  O6  1  0.18611809  0.19405237  0.55546471  1
  O  O7  1  0.31388174  0.69405187  0.55546471  1
  O  O8  1  0.62497472  0.04551317  0.75000041  1
  O  O9  1  0.87502476  0.54551267  0.75000041  1
  O  O10  1  0.18611809  0.19405237  0.94453481  1
  O  O11  1  0.31388174  0.69405187  0.94453481  1
  Pd  Pd12  1  0.49999983  0.00000000  0.00000000  1
  Pd  Pd13  1  0.00000000  0.49999950  0.00000000  1
  Pd  Pd14  1  0.49999983  0.00000000  0.49999984  1
  Pd  Pd15  1  0.00000000  0.49999950  0.49999984  1
  Pm  Pm16  1  0.97327856  0.07960466  0.25000057  1
  Pm  Pm17  1  0.52672275  0.57960416  0.25000057  1
  Pm  Pm18  1  0.47327873  0.42039484  0.75000041  1
  Pm  Pm19  1  0.02672110  0.92039603  0.75000041  1
