# generated using pymatgen
data_KPmO3
_symmetry_space_group_name_H-M   'P 1'
_cell_length_a   6.32727421
_cell_length_b   6.33407430
_cell_length_c   8.93236963
_cell_angle_alpha   90.00000000
_cell_angle_beta   90.00000000
_cell_angle_gamma   90.00000000
_symmetry_Int_Tables_number   1
_chemical_formula_structural   KPmO3
_chemical_formula_sum   'K4 Pm4 O12'
_cell_volume   357.98637350
_cell_formula_units_Z   4
loop_
 _symmetry_equiv_pos_site_id
 _symmetry_equiv_pos_as_xyz
  1  'x, y, z'
loop_
 _atom_site_type_symbol
 _atom_site_label
 _atom_site_symmetry_multiplicity
 _atom_site_fract_x
 _atom_site_fract_y
 _atom_site_fract_z
 _atom_site_occupancy
  K  K0  1  0.99709445  0.01864519  0.25000085  1
  K  K1  1  0.50290376  0.51864564  0.25000085  1
  K  K2  1  0.49709557  0.48135526  0.75000031  1
  K  K3  1  0.00290488  0.98135571  0.75000031  1
  O  O4  1  0.71734998  0.28140181  0.03329464  1
  O  O5  1  0.78265140  0.78140226  0.03329464  1
  O  O6  1  0.06407024  0.47466762  0.25000085  1
  O  O7  1  0.43592863  0.97466650  0.25000085  1
  O  O8  1  0.71734998  0.28140181  0.46670594  1
  O  O9  1  0.78265140  0.78140226  0.46670594  1
  O  O10  1  0.21734952  0.21859706  0.53329410  1
  O  O11  1  0.28265094  0.71859751  0.53329410  1
  O  O12  1  0.56407070  0.02533283  0.75000031  1
  O  O13  1  0.93592751  0.52533328  0.75000031  1
  O  O14  1  0.21734952  0.21859706  0.96670540  1
  O  O15  1  0.28265094  0.71859751  0.96670540  1
  Pm  Pm16  1  0.50000046  0.00000000  0.00000000  1
  Pm  Pm17  1  0.00000000  0.50000045  0.00000000  1
  Pm  Pm18  1  0.50000046  0.00000000  0.50000058  1
  Pm  Pm19  1  0.00000000  0.50000045  0.50000058  1
