# generated using pymatgen
data_TiGeO3
_symmetry_space_group_name_H-M   'P 1'
_cell_length_a   5.29757293
_cell_length_b   5.47076656
_cell_length_c   7.56968032
_cell_angle_alpha   90.00000000
_cell_angle_beta   90.00000000
_cell_angle_gamma   90.00000000
_symmetry_Int_Tables_number   1
_chemical_formula_structural   TiGeO3
_chemical_formula_sum   'Ti4 Ge4 O12'
_cell_volume   219.38284607
_cell_formula_units_Z   4
loop_
 _symmetry_equiv_pos_site_id
 _symmetry_equiv_pos_as_xyz
  1  'x, y, z'
loop_
 _atom_site_type_symbol
 _atom_site_label
 _atom_site_symmetry_multiplicity
 _atom_site_fract_x
 _atom_site_fract_y
 _atom_site_fract_z
 _atom_site_occupancy
  Ge  Ge0  1  0.99119408  0.02252518  0.24999999  1
  Ge  Ge1  1  0.50880659  0.52252458  0.24999999  1
  Ge  Ge2  1  0.49119286  0.47747605  0.74999997  1
  Ge  Ge3  1  0.00880592  0.97747545  0.74999997  1
  O  O4  1  0.68936097  0.30454233  0.05153718  1
  O  O5  1  0.81063726  0.80454173  0.05153718  1
  O  O6  1  0.10646951  0.48387917  0.24999999  1
  O  O7  1  0.39352927  0.98388040  0.24999999  1
  O  O8  1  0.68936097  0.30454233  0.44846280  1
  O  O9  1  0.81063726  0.80454173  0.44846280  1
  O  O10  1  0.18936219  0.19545890  0.55153716  1
  O  O11  1  0.31063848  0.69545830  0.55153716  1
  O  O12  1  0.60647018  0.01612023  0.74999997  1
  O  O13  1  0.89352994  0.51611963  0.74999997  1
  O  O14  1  0.18936219  0.19545890  0.94846277  1
  O  O15  1  0.31063848  0.69545830  0.94846277  1
  Ti  Ti16  1  0.50000067  0.00000000  0.00000000  1
  Ti  Ti17  1  0.00000000  0.49999940  0.00000000  1
  Ti  Ti18  1  0.50000067  0.00000000  0.49999998  1
  Ti  Ti19  1  0.00000000  0.49999940  0.49999998  1
