# generated using pymatgen
data_MnSbO3
_symmetry_space_group_name_H-M   'P 1'
_cell_length_a   5.28662253
_cell_length_b   5.68017029
_cell_length_c   7.74171532
_cell_angle_alpha   90.00000000
_cell_angle_beta   90.00000000
_cell_angle_gamma   90.00000000
_symmetry_Int_Tables_number   1
_chemical_formula_structural   MnSbO3
_chemical_formula_sum   'Mn4 Sb4 O12'
_cell_volume   232.47532100
_cell_formula_units_Z   4
loop_
 _symmetry_equiv_pos_site_id
 _symmetry_equiv_pos_as_xyz
  1  'x, y, z'
loop_
 _atom_site_type_symbol
 _atom_site_label
 _atom_site_symmetry_multiplicity
 _atom_site_fract_x
 _atom_site_fract_y
 _atom_site_fract_z
 _atom_site_occupancy
  Mn  Mn0  1  0.49999976  0.00000000  0.00000000  1
  Mn  Mn1  1  0.00000000  0.50000085  0.00000000  1
  Mn  Mn2  1  0.49999976  0.00000000  0.50000030  1
  Mn  Mn3  1  0.00000000  0.50000085  0.50000030  1
  O  O4  1  0.68695088  0.30967910  0.05474239  1
  O  O5  1  0.81305029  0.80967819  0.05474239  1
  O  O6  1  0.12594809  0.46758809  0.25000015  1
  O  O7  1  0.37405167  0.96758719  0.25000015  1
  O  O8  1  0.68695088  0.30967910  0.44525791  1
  O  O9  1  0.81305029  0.80967819  0.44525791  1
  O  O10  1  0.18695112  0.19032176  0.55474140  1
  O  O11  1  0.31305053  0.69032085  0.55474140  1
  O  O12  1  0.62594785  0.03241276  0.75000045  1
  O  O13  1  0.87405143  0.53241185  0.75000045  1
  O  O14  1  0.18695112  0.19032176  0.94525821  1
  O  O15  1  0.31305053  0.69032085  0.94525821  1
  Sb  Sb16  1  0.99235050  0.04661128  0.25000015  1
  Sb  Sb17  1  0.50764926  0.54661213  0.25000015  1
  Sb  Sb18  1  0.49235216  0.45338782  0.75000045  1
  Sb  Sb19  1  0.00764950  0.95338867  0.75000045  1
