# generated using pymatgen
data_SrCdO3
_symmetry_space_group_name_H-M   'P 1'
_cell_length_a   4.12286519
_cell_length_b   4.12286519
_cell_length_c   4.15907353
_cell_angle_alpha   90.00000000
_cell_angle_beta   90.00000000
_cell_angle_gamma   90.00000000
_symmetry_Int_Tables_number   1
_chemical_formula_structural   SrCdO3
_chemical_formula_sum   'Sr1 Cd1 O3'
_cell_volume   70.69600390
_cell_formula_units_Z   1
loop_
 _symmetry_equiv_pos_site_id
 _symmetry_equiv_pos_as_xyz
  1  'x, y, z'
loop_
 _atom_site_type_symbol
 _atom_site_label
 _atom_site_symmetry_multiplicity
 _atom_site_fract_x
 _atom_site_fract_y
 _atom_site_fract_z
 _atom_site_occupancy
  Cd  Cd0  1  0.49999937  0.49999937  0.57017266  1
  O  O1  1  0.49999937  0.49999937  0.07271571  1
  O  O2  1  0.49999937  0.00000000  0.60542810  1
  O  O3  1  0.00000000  0.49999937  0.60542810  1
  Sr  Sr4  1  0.00000000  0.00000000  0.04625549  1
