# generated using pymatgen
data_TlRhO3
_symmetry_space_group_name_H-M   'P 1'
_cell_length_a   5.43999793
_cell_length_b   5.58026474
_cell_length_c   7.80691858
_cell_angle_alpha   90.00000000
_cell_angle_beta   90.00000000
_cell_angle_gamma   90.00000000
_symmetry_Int_Tables_number   1
_chemical_formula_structural   TlRhO3
_chemical_formula_sum   'Tl4 Rh4 O12'
_cell_volume   236.99172815
_cell_formula_units_Z   4
loop_
 _symmetry_equiv_pos_site_id
 _symmetry_equiv_pos_as_xyz
  1  'x, y, z'
loop_
 _atom_site_type_symbol
 _atom_site_label
 _atom_site_symmetry_multiplicity
 _atom_site_fract_x
 _atom_site_fract_y
 _atom_site_fract_z
 _atom_site_occupancy
  O  O0  1  0.71227233  0.28529292  0.06846491  1
  O  O1  1  0.78772640  0.78529249  0.06846491  1
  O  O2  1  0.11736218  0.43953112  0.25000005  1
  O  O3  1  0.38263801  0.93953069  0.25000005  1
  O  O4  1  0.71227233  0.28529292  0.43153518  1
  O  O5  1  0.78772640  0.78529249  0.43153518  1
  O  O6  1  0.21227214  0.21470845  0.56846500  1
  O  O7  1  0.28772621  0.71470803  0.56846500  1
  O  O8  1  0.61736237  0.06047025  0.75000014  1
  O  O9  1  0.88263820  0.56046982  0.75000014  1
  O  O10  1  0.21227214  0.21470845  0.93153527  1
  O  O11  1  0.28772621  0.71470803  0.93153527  1
  Rh  Rh12  1  0.50000019  0.00000000  0.00000000  1
  Rh  Rh13  1  0.00000000  0.49999958  0.00000000  1
  Rh  Rh14  1  0.50000019  0.00000000  0.50000009  1
  Rh  Rh15  1  0.00000000  0.49999958  0.50000009  1
  Tl  Tl16  1  0.98196177  0.04420041  0.25000005  1
  Tl  Tl17  1  0.51803880  0.54419999  0.25000005  1
  Tl  Tl18  1  0.48196158  0.45579916  0.75000014  1
  Tl  Tl19  1  0.01803861  0.95579874  0.75000014  1
