# generated using pymatgen
data_LaInO3
_symmetry_space_group_name_H-M   'P 1'
_cell_length_a   4.00053352
_cell_length_b   4.00053352
_cell_length_c   4.73485676
_cell_angle_alpha   90.00000000
_cell_angle_beta   90.00000000
_cell_angle_gamma   90.00000000
_symmetry_Int_Tables_number   1
_chemical_formula_structural   LaInO3
_chemical_formula_sum   'La1 In1 O3'
_cell_volume   75.77791874
_cell_formula_units_Z   1
loop_
 _symmetry_equiv_pos_site_id
 _symmetry_equiv_pos_as_xyz
  1  'x, y, z'
loop_
 _atom_site_type_symbol
 _atom_site_label
 _atom_site_symmetry_multiplicity
 _atom_site_fract_x
 _atom_site_fract_y
 _atom_site_fract_z
 _atom_site_occupancy
  In  In0  1  0.50000081  0.50000081  0.52378987  1
  La  La1  1  0.00000000  0.00000000  0.95677166  1
  O  O2  1  0.50000081  0.50000081  0.09028784  1
  O  O3  1  0.50000081  0.00000000  0.66457554  1
  O  O4  1  0.00000000  0.50000081  0.66457554  1
