# generated using pymatgen
data_YbMoO3
_symmetry_space_group_name_H-M   'P 1'
_cell_length_a   5.32894282
_cell_length_b   5.60503462
_cell_length_c   7.68545511
_cell_angle_alpha   90.00000000
_cell_angle_beta   90.00000000
_cell_angle_gamma   90.00000000
_symmetry_Int_Tables_number   1
_chemical_formula_structural   YbMoO3
_chemical_formula_sum   'Yb4 Mo4 O12'
_cell_volume   229.55615940
_cell_formula_units_Z   4
loop_
 _symmetry_equiv_pos_site_id
 _symmetry_equiv_pos_as_xyz
  1  'x, y, z'
loop_
 _atom_site_type_symbol
 _atom_site_label
 _atom_site_symmetry_multiplicity
 _atom_site_fract_x
 _atom_site_fract_y
 _atom_site_fract_z
 _atom_site_occupancy
  Mo  Mo0  1  0.50000161  0.00000000  0.00000000  1
  Mo  Mo1  1  0.00000000  0.50000048  0.00000000  1
  Mo  Mo2  1  0.50000161  0.00000000  0.50000032  1
  Mo  Mo3  1  0.00000000  0.50000048  0.50000032  1
  O  O4  1  0.69868455  0.29509720  0.04806872  1
  O  O5  1  0.80131654  0.79509768  0.04806872  1
  O  O6  1  0.09506388  0.47345292  0.25000081  1
  O  O7  1  0.40493585  0.97345340  0.25000081  1
  O  O8  1  0.69868455  0.29509720  0.45193160  1
  O  O9  1  0.80131654  0.79509768  0.45193160  1
  O  O10  1  0.19868481  0.20490328  0.54806774  1
  O  O11  1  0.30131492  0.70490376  0.54806774  1
  O  O12  1  0.59506550  0.02654756  0.74999983  1
  O  O13  1  0.90493559  0.52654626  0.74999983  1
  O  O14  1  0.19868481  0.20490328  0.95193191  1
  O  O15  1  0.30131492  0.70490376  0.95193191  1
  Yb  Yb16  1  0.98175946  0.06411557  0.25000081  1
  Yb  Yb17  1  0.51823975  0.56411605  0.25000081  1
  Yb  Yb18  1  0.48175972  0.43588491  0.74999983  1
  Yb  Yb19  1  0.01824002  0.93588539  0.74999983  1
