# generated using pymatgen
data_CdMoO3
_symmetry_space_group_name_H-M   'P 1'
_cell_length_a   5.51018638
_cell_length_b   5.46202963
_cell_length_c   7.74563164
_cell_angle_alpha   90.00000000
_cell_angle_beta   90.00000000
_cell_angle_gamma   90.00000000
_symmetry_Int_Tables_number   1
_chemical_formula_structural   CdMoO3
_chemical_formula_sum   'Cd4 Mo4 O12'
_cell_volume   233.11873625
_cell_formula_units_Z   4
loop_
 _symmetry_equiv_pos_site_id
 _symmetry_equiv_pos_as_xyz
  1  'x, y, z'
loop_
 _atom_site_type_symbol
 _atom_site_label
 _atom_site_symmetry_multiplicity
 _atom_site_fract_x
 _atom_site_fract_y
 _atom_site_fract_z
 _atom_site_occupancy
  Cd  Cd0  1  0.99031496  0.03862850  0.25000027  1
  Cd  Cd1  1  0.50968693  0.53862945  0.25000027  1
  Cd  Cd2  1  0.49031372  0.46137062  0.74999952  1
  Cd  Cd3  1  0.00968570  0.96137157  0.74999952  1
  Mo  Mo4  1  0.49999942  0.00000000  0.00000000  1
  Mo  Mo5  1  0.00000000  0.49999912  0.00000000  1
  Mo  Mo6  1  0.49999942  0.00000000  0.50000054  1
  Mo  Mo7  1  0.00000000  0.49999912  0.50000054  1
  O  O8  1  0.70801235  0.29207824  0.05079508  1
  O  O9  1  0.79198773  0.79207919  0.05079508  1
  O  O10  1  0.10435763  0.48448474  0.25000027  1
  O  O11  1  0.39564179  0.98448569  0.25000027  1
  O  O12  1  0.70801235  0.29207824  0.44920546  1
  O  O13  1  0.79198773  0.79207919  0.44920546  1
  O  O14  1  0.20801293  0.20792088  0.55079562  1
  O  O15  1  0.29198831  0.70792000  0.55079562  1
  O  O16  1  0.60435887  0.01551621  0.74999952  1
  O  O17  1  0.89564121  0.51551716  0.74999952  1
  O  O18  1  0.20801293  0.20792088  0.94920471  1
  O  O19  1  0.29198831  0.70792000  0.94920471  1
