# generated using pymatgen
data_PaBi3F
_symmetry_space_group_name_H-M   'P 1'
_cell_length_a   5.00969590
_cell_length_b   5.00969590
_cell_length_c   5.00969590
_cell_angle_alpha   90.00000000
_cell_angle_beta   90.00000000
_cell_angle_gamma   90.00000000
_symmetry_Int_Tables_number   1
_chemical_formula_structural   PaBi3F
_chemical_formula_sum   'Pa1 Bi3 F1'
_cell_volume   125.72860372
_cell_formula_units_Z   1
loop_
 _symmetry_equiv_pos_site_id
 _symmetry_equiv_pos_as_xyz
  1  'x, y, z'
loop_
 _atom_site_type_symbol
 _atom_site_label
 _atom_site_symmetry_multiplicity
 _atom_site_fract_x
 _atom_site_fract_y
 _atom_site_fract_z
 _atom_site_occupancy
  Bi  Bi0  1  0.50000000  0.50000000  0.00000000  1
  Bi  Bi1  1  0.50000000  0.00000000  0.50000000  1
  Bi  Bi2  1  0.00000000  0.50000000  0.50000000  1
  F  F3  1  0.50000000  0.50000000  0.50000000  1
  Pa  Pa4  1  0.00000000  0.00000000  0.00000000  1
