# generated using pymatgen
data_HfUO3
_symmetry_space_group_name_H-M   'P 1'
_cell_length_a   5.62855515
_cell_length_b   5.97408926
_cell_length_c   8.06664199
_cell_angle_alpha   90.00000000
_cell_angle_beta   90.00000000
_cell_angle_gamma   90.00000000
_symmetry_Int_Tables_number   1
_chemical_formula_structural   HfUO3
_chemical_formula_sum   'Hf4 U4 O12'
_cell_volume   271.24479695
_cell_formula_units_Z   4
loop_
 _symmetry_equiv_pos_site_id
 _symmetry_equiv_pos_as_xyz
  1  'x, y, z'
loop_
 _atom_site_type_symbol
 _atom_site_label
 _atom_site_symmetry_multiplicity
 _atom_site_fract_x
 _atom_site_fract_y
 _atom_site_fract_z
 _atom_site_occupancy
  Hf  Hf0  1  0.50000043  0.00000000  0.00000000  1
  Hf  Hf1  1  0.00000000  0.49999922  0.00000000  1
  Hf  Hf2  1  0.50000043  0.00000000  0.49999988  1
  Hf  Hf3  1  0.00000000  0.49999922  0.49999988  1
  O  O4  1  0.69061951  0.29930755  0.04744477  1
  O  O5  1  0.80938178  0.79930677  0.04744477  1
  O  O6  1  0.09456956  0.47126514  0.24999994  1
  O  O7  1  0.40543087  0.97126436  0.24999994  1
  O  O8  1  0.69061951  0.29930755  0.45255634  1
  O  O9  1  0.80938178  0.79930677  0.45255634  1
  O  O10  1  0.19061908  0.20069503  0.54744341  1
  O  O11  1  0.30938135  0.70069425  0.54744341  1
  O  O12  1  0.59456822  0.02873576  0.74999981  1
  O  O13  1  0.90543130  0.52873499  0.74999981  1
  O  O14  1  0.19061908  0.20069503  0.95255622  1
  O  O15  1  0.30938135  0.70069425  0.95255622  1
  U  U16  1  0.98925565  0.07003745  0.24999994  1
  U  U17  1  0.51074386  0.57003668  0.24999994  1
  U  U18  1  0.48925700  0.42996177  0.74999981  1
  U  U19  1  0.01074343  0.92996267  0.74999981  1
