# generated using pymatgen
data_ZrMnO3
_symmetry_space_group_name_H-M   'P 1'
_cell_length_a   5.38323984
_cell_length_b   5.59413896
_cell_length_c   7.90333456
_cell_angle_alpha   90.00000000
_cell_angle_beta   90.00000000
_cell_angle_gamma   90.00000000
_symmetry_Int_Tables_number   1
_chemical_formula_structural   ZrMnO3
_chemical_formula_sum   'Zr4 Mn4 O12'
_cell_volume   238.00569321
_cell_formula_units_Z   4
loop_
 _symmetry_equiv_pos_site_id
 _symmetry_equiv_pos_as_xyz
  1  'x, y, z'
loop_
 _atom_site_type_symbol
 _atom_site_label
 _atom_site_symmetry_multiplicity
 _atom_site_fract_x
 _atom_site_fract_y
 _atom_site_fract_z
 _atom_site_occupancy
  Mn  Mn0  1  0.99355410  0.04924261  0.24999954  1
  Mn  Mn1  1  0.50644595  0.54924270  0.24999954  1
  Mn  Mn2  1  0.49355408  0.45075570  0.74999988  1
  Mn  Mn3  1  0.00644779  0.95075579  0.74999988  1
  O  O4  1  0.67404019  0.32008679  0.06978700  1
  O  O5  1  0.82595986  0.82008689  0.06978700  1
  O  O6  1  0.13000350  0.42750279  0.24999954  1
  O  O7  1  0.36999466  0.92750288  0.24999954  1
  O  O8  1  0.67404019  0.32008679  0.43021335  1
  O  O9  1  0.82595986  0.82008689  0.43021335  1
  O  O10  1  0.17404203  0.17991330  0.56978734  1
  O  O11  1  0.32595984  0.67991339  0.56978734  1
  O  O12  1  0.63000537  0.07249731  0.74999988  1
  O  O13  1  0.86999653  0.57249740  0.74999988  1
  O  O14  1  0.17404203  0.17991330  0.93021242  1
  O  O15  1  0.32595984  0.67991339  0.93021242  1
  Zr  Zr16  1  0.50000002  0.00000000  0.00000000  1
  Zr  Zr17  1  0.00000000  0.50000009  0.00000000  1
  Zr  Zr18  1  0.50000002  0.00000000  0.50000034  1
  Zr  Zr19  1  0.00000000  0.50000009  0.50000034  1
