# generated using pymatgen
data_NpNiO3
_symmetry_space_group_name_H-M   'P 1'
_cell_length_a   5.27690925
_cell_length_b   5.78185355
_cell_length_c   7.55093187
_cell_angle_alpha   90.00000000
_cell_angle_beta   90.00000000
_cell_angle_gamma   90.00000000
_symmetry_Int_Tables_number   1
_chemical_formula_structural   NpNiO3
_chemical_formula_sum   'Np4 Ni4 O12'
_cell_volume   230.38132094
_cell_formula_units_Z   4
loop_
 _symmetry_equiv_pos_site_id
 _symmetry_equiv_pos_as_xyz
  1  'x, y, z'
loop_
 _atom_site_type_symbol
 _atom_site_label
 _atom_site_symmetry_multiplicity
 _atom_site_fract_x
 _atom_site_fract_y
 _atom_site_fract_z
 _atom_site_occupancy
  Ni  Ni0  1  0.49999912  0.00000000  0.00000000  1
  Ni  Ni1  1  0.00000000  0.49999883  0.00000000  1
  Ni  Ni2  1  0.49999912  0.00000000  0.50000054  1
  Ni  Ni3  1  0.00000000  0.49999883  0.50000054  1
  Np  Np4  1  0.97912618  0.07929983  0.24999961  1
  Np  Np5  1  0.52087688  0.57930039  0.24999961  1
  Np  Np6  1  0.47912516  0.42070073  0.75000015  1
  Np  Np7  1  0.02087207  0.92069956  0.75000015  1
  O  O8  1  0.67879697  0.31496128  0.05753462  1
  O  O9  1  0.82120230  0.81495838  0.05753462  1
  O  O10  1  0.12011198  0.45802613  0.24999961  1
  O  O11  1  0.37988904  0.95802496  0.24999961  1
  O  O12  1  0.67879697  0.31496128  0.44246592  1
  O  O13  1  0.82120230  0.81495838  0.44246592  1
  O  O14  1  0.17879784  0.18503928  0.55753383  1
  O  O15  1  0.32120507  0.68503811  0.55753383  1
  O  O16  1  0.62010921  0.04197616  0.75000015  1
  O  O17  1  0.87988817  0.54197499  0.75000015  1
  O  O18  1  0.17879784  0.18503928  0.94246646  1
  O  O19  1  0.32120507  0.68503811  0.94246646  1
