# generated using pymatgen
data_NaIrO3
_symmetry_space_group_name_H-M   'P 1'
_cell_length_a   3.85412007
_cell_length_b   3.85412007
_cell_length_c   3.87292915
_cell_angle_alpha   90.00000000
_cell_angle_beta   90.00000000
_cell_angle_gamma   90.00000000
_symmetry_Int_Tables_number   1
_chemical_formula_structural   NaIrO3
_chemical_formula_sum   'Na1 Ir1 O3'
_cell_volume   57.52942478
_cell_formula_units_Z   1
loop_
 _symmetry_equiv_pos_site_id
 _symmetry_equiv_pos_as_xyz
  1  'x, y, z'
loop_
 _atom_site_type_symbol
 _atom_site_label
 _atom_site_symmetry_multiplicity
 _atom_site_fract_x
 _atom_site_fract_y
 _atom_site_fract_z
 _atom_site_occupancy
  Ir  Ir0  1  0.49999999  0.49999999  0.56790350  1
  Na  Na1  1  0.00000000  0.00000000  0.05311742  1
  O  O2  1  0.49999999  0.49999999  0.07653639  1
  O  O3  1  0.49999999  0.00000000  0.60121936  1
  O  O4  1  0.00000000  0.49999999  0.60121936  1
