# generated using pymatgen
data_NaIrO3
_symmetry_space_group_name_H-M   'P 1'
_cell_length_a   5.26732601
_cell_length_b   5.39752609
_cell_length_c   7.54136382
_cell_angle_alpha   90.00000000
_cell_angle_beta   90.00000000
_cell_angle_gamma   90.00000000
_symmetry_Int_Tables_number   1
_chemical_formula_structural   NaIrO3
_chemical_formula_sum   'Na4 Ir4 O12'
_cell_volume   214.40496689
_cell_formula_units_Z   4
loop_
 _symmetry_equiv_pos_site_id
 _symmetry_equiv_pos_as_xyz
  1  'x, y, z'
loop_
 _atom_site_type_symbol
 _atom_site_label
 _atom_site_symmetry_multiplicity
 _atom_site_fract_x
 _atom_site_fract_y
 _atom_site_fract_z
 _atom_site_occupancy
  Ir  Ir0  1  0.49999943  0.00000000  0.00000000  1
  Ir  Ir1  1  0.00000000  0.49999944  0.00000000  1
  Ir  Ir2  1  0.49999943  0.00000000  0.49999975  1
  Ir  Ir3  1  0.00000000  0.49999944  0.49999975  1
  Na  Na4  1  0.98388632  0.05742631  0.24999987  1
  Na  Na5  1  0.51611387  0.55742760  0.24999987  1
  Na  Na6  1  0.48388689  0.44257498  0.74999962  1
  Na  Na7  1  0.01611444  0.94257442  0.74999962  1
  O  O8  1  0.69262278  0.30416342  0.05379266  1
  O  O9  1  0.80737740  0.80416286  0.05379266  1
  O  O10  1  0.10733150  0.47632748  0.24999987  1
  O  O11  1  0.39266603  0.97632692  0.24999987  1
  O  O12  1  0.69262278  0.30416342  0.44620709  1
  O  O13  1  0.80737740  0.80416286  0.44620709  1
  O  O14  1  0.19262145  0.19583602  0.55379240  1
  O  O15  1  0.30737797  0.69583545  0.55379240  1
  O  O16  1  0.60733093  0.02367381  0.74999962  1
  O  O17  1  0.89266736  0.52367324  0.74999962  1
  O  O18  1  0.19262145  0.19583602  0.94620816  1
  O  O19  1  0.30737797  0.69583545  0.94620816  1
