# generated using pymatgen
data_TiFeO3
_symmetry_space_group_name_H-M   'P 1'
_cell_length_a   5.05334056
_cell_length_b   5.34081171
_cell_length_c   7.36849133
_cell_angle_alpha   90.00000000
_cell_angle_beta   90.00000000
_cell_angle_gamma   90.00000000
_symmetry_Int_Tables_number   1
_chemical_formula_structural   TiFeO3
_chemical_formula_sum   'Ti4 Fe4 O12'
_cell_volume   198.86777392
_cell_formula_units_Z   4
loop_
 _symmetry_equiv_pos_site_id
 _symmetry_equiv_pos_as_xyz
  1  'x, y, z'
loop_
 _atom_site_type_symbol
 _atom_site_label
 _atom_site_symmetry_multiplicity
 _atom_site_fract_x
 _atom_site_fract_y
 _atom_site_fract_z
 _atom_site_occupancy
  Fe  Fe0  1  0.97624333  0.06782490  0.24999962  1
  Fe  Fe1  1  0.52375651  0.56782380  0.24999962  1
  Fe  Fe2  1  0.47624338  0.43217588  0.75000020  1
  Fe  Fe3  1  0.02375656  0.93217478  0.75000020  1
  O  O4  1  0.67954256  0.31305354  0.06383939  1
  O  O5  1  0.82045727  0.81305431  0.06383939  1
  O  O6  1  0.12708227  0.44808545  0.24999962  1
  O  O7  1  0.37291767  0.94808435  0.24999962  1
  O  O8  1  0.67954256  0.31305354  0.43615984  1
  O  O9  1  0.82045727  0.81305431  0.43615984  1
  O  O10  1  0.17954262  0.18694724  0.56383998  1
  O  O11  1  0.32045733  0.68694614  0.56383998  1
  O  O12  1  0.62708222  0.05191533  0.75000020  1
  O  O13  1  0.87291762  0.55191423  0.75000020  1
  O  O14  1  0.17954262  0.18694724  0.93616043  1
  O  O15  1  0.32045733  0.68694614  0.93616043  1
  Ti  Ti16  1  0.49999994  0.00000000  0.00000000  1
  Ti  Ti17  1  0.00000000  0.50000078  0.00000000  1
  Ti  Ti18  1  0.49999994  0.00000000  0.50000059  1
  Ti  Ti19  1  0.00000000  0.50000078  0.50000059  1
