# generated using pymatgen
data_PrMgO3
_symmetry_space_group_name_H-M   'P 1'
_cell_length_a   4.44266700
_cell_length_b   4.44266700
_cell_length_c   4.44266700
_cell_angle_alpha   90.00000000
_cell_angle_beta   90.00000000
_cell_angle_gamma   90.00000000
_symmetry_Int_Tables_number   1
_chemical_formula_structural   PrMgO3
_chemical_formula_sum   'Pr1 Mg1 O3'
_cell_volume   87.68620728
_cell_formula_units_Z   1
loop_
 _symmetry_equiv_pos_site_id
 _symmetry_equiv_pos_as_xyz
  1  'x, y, z'
loop_
 _atom_site_type_symbol
 _atom_site_label
 _atom_site_symmetry_multiplicity
 _atom_site_fract_x
 _atom_site_fract_y
 _atom_site_fract_z
 _atom_site_occupancy
  Mg  Mg0  1  0.00000000  0.00000000  0.00000000  1
  O  O1  1  0.49999921  0.49999921  0.00000000  1
  O  O2  1  0.49999921  0.00000000  0.49999921  1
  O  O3  1  0.00000000  0.49999921  0.49999921  1
  Pr  Pr4  1  0.49999921  0.49999921  0.49999921  1
