# generated using pymatgen
data_PrMgO3
_symmetry_space_group_name_H-M   'P 1'
_cell_length_a   5.41203304
_cell_length_b   5.78198391
_cell_length_c   7.79179318
_cell_angle_alpha   90.00000000
_cell_angle_beta   90.00000000
_cell_angle_gamma   90.00000000
_symmetry_Int_Tables_number   1
_chemical_formula_structural   PrMgO3
_chemical_formula_sum   'Pr4 Mg4 O12'
_cell_volume   243.82303592
_cell_formula_units_Z   4
loop_
 _symmetry_equiv_pos_site_id
 _symmetry_equiv_pos_as_xyz
  1  'x, y, z'
loop_
 _atom_site_type_symbol
 _atom_site_label
 _atom_site_symmetry_multiplicity
 _atom_site_fract_x
 _atom_site_fract_y
 _atom_site_fract_z
 _atom_site_occupancy
  Mg  Mg0  1  0.50000064  0.00000000  0.00000000  1
  Mg  Mg1  1  0.00000000  0.49999966  0.00000000  1
  Mg  Mg2  1  0.50000064  0.00000000  0.49999915  1
  Mg  Mg3  1  0.00000000  0.49999966  0.49999915  1
  O  O4  1  0.69388527  0.29748094  0.04796329  1
  O  O5  1  0.80611481  0.79748060  0.04796329  1
  O  O6  1  0.09181023  0.47082628  0.25000022  1
  O  O7  1  0.40819041  0.97082595  0.25000022  1
  O  O8  1  0.69388527  0.29748094  0.45203715  1
  O  O9  1  0.80611481  0.79748060  0.45203715  1
  O  O10  1  0.19388647  0.20252045  0.54796244  1
  O  O11  1  0.30611417  0.70252011  0.54796244  1
  O  O12  1  0.59181087  0.02917338  0.74999937  1
  O  O13  1  0.90818921  0.52917304  0.74999937  1
  O  O14  1  0.19388647  0.20252045  0.95203759  1
  O  O15  1  0.30611417  0.70252011  0.95203759  1
  Pr  Pr16  1  0.98114146  0.06645470  0.25000022  1
  Pr  Pr17  1  0.51885862  0.56645436  0.25000022  1
  Pr  Pr18  1  0.48114266  0.43354669  0.74999937  1
  Pr  Pr19  1  0.01885798  0.93354635  0.74999937  1
