# generated using pymatgen
data_LiUO3
_symmetry_space_group_name_H-M   'P 1'
_cell_length_a   4.28249956
_cell_length_b   4.28251290
_cell_length_c   4.28251369
_cell_angle_alpha   88.90813538
_cell_angle_beta   88.90811499
_cell_angle_gamma   88.90805752
_symmetry_Int_Tables_number   1
_chemical_formula_structural   LiUO3
_chemical_formula_sum   'Li1 U1 O3'
_cell_volume   78.49845085
_cell_formula_units_Z   1
loop_
 _symmetry_equiv_pos_site_id
 _symmetry_equiv_pos_as_xyz
  1  'x, y, z'
loop_
 _atom_site_type_symbol
 _atom_site_label
 _atom_site_symmetry_multiplicity
 _atom_site_fract_x
 _atom_site_fract_y
 _atom_site_fract_z
 _atom_site_occupancy
  Li  Li0  1  0.00000000  0.00000000  0.00000000  1
  O  O1  1  0.49999983  0.49999968  0.99999917  1
  O  O2  1  0.49999959  0.99999820  0.50000063  1
  O  O3  1  0.00000089  0.49999999  0.50000085  1
  U  U4  1  0.49999914  0.50000128  0.49999955  1
