# generated using pymatgen
data_TaPdO3
_symmetry_space_group_name_H-M   'P 1'
_cell_length_a   5.41571344
_cell_length_b   5.57734490
_cell_length_c   7.75542470
_cell_angle_alpha   90.00000000
_cell_angle_beta   90.00000000
_cell_angle_gamma   90.00000000
_symmetry_Int_Tables_number   1
_chemical_formula_structural   TaPdO3
_chemical_formula_sum   'Ta4 Pd4 O12'
_cell_volume   234.25494301
_cell_formula_units_Z   4
loop_
 _symmetry_equiv_pos_site_id
 _symmetry_equiv_pos_as_xyz
  1  'x, y, z'
loop_
 _atom_site_type_symbol
 _atom_site_label
 _atom_site_symmetry_multiplicity
 _atom_site_fract_x
 _atom_site_fract_y
 _atom_site_fract_z
 _atom_site_occupancy
  O  O0  1  0.68312699  0.31327989  0.02310383  1
  O  O1  1  0.81687298  0.81327945  0.02310383  1
  O  O2  1  0.05429202  0.48204478  0.24999920  1
  O  O3  1  0.44571044  0.98204434  0.24999920  1
  O  O4  1  0.68312699  0.31327989  0.47689587  1
  O  O5  1  0.81687298  0.81327945  0.47689587  1
  O  O6  1  0.18312823  0.18672146  0.52310353  1
  O  O7  1  0.31687238  0.68672102  0.52310353  1
  O  O8  1  0.55429262  0.01795478  0.74999890  1
  O  O9  1  0.94570920  0.51795613  0.74999890  1
  O  O10  1  0.18312823  0.18672146  0.97689686  1
  O  O11  1  0.31687238  0.68672102  0.97689686  1
  Pd  Pd12  1  0.98983265  0.00062933  0.24999920  1
  Pd  Pd13  1  0.51016547  0.50062889  0.24999920  1
  Pd  Pd14  1  0.48983389  0.49937023  0.74999890  1
  Pd  Pd15  1  0.01016671  0.99937158  0.74999890  1
  Ta  Ta16  1  0.50000061  0.00000000  0.00000000  1
  Ta  Ta17  1  0.00000000  0.49999956  0.00000000  1
  Ta  Ta18  1  0.50000061  0.00000000  0.49999970  1
  Ta  Ta19  1  0.00000000  0.49999956  0.49999970  1
