# generated using pymatgen
data_LiBeH3
_symmetry_space_group_name_H-M   'P 1'
_cell_length_a   4.42064700
_cell_length_b   6.15848900
_cell_length_c   4.30858400
_cell_angle_alpha   90.00000000
_cell_angle_beta   90.00000000
_cell_angle_gamma   90.00000000
_symmetry_Int_Tables_number   1
_chemical_formula_structural   LiBeH3
_chemical_formula_sum   'Li4 Be4 H12'
_cell_volume   117.29907063
_cell_formula_units_Z   4
loop_
 _symmetry_equiv_pos_site_id
 _symmetry_equiv_pos_as_xyz
  1  'x, y, z'
loop_
 _atom_site_type_symbol
 _atom_site_label
 _atom_site_symmetry_multiplicity
 _atom_site_fract_x
 _atom_site_fract_y
 _atom_site_fract_z
 _atom_site_occupancy
  Be  Be0  1  0.50000147  0.00000000  0.00000000  1
  Be  Be1  1  0.50000147  0.50000089  0.00000000  1
  Be  Be2  1  0.00000000  0.00000000  0.49999954  1
  Be  Be3  1  0.00000000  0.50000089  0.49999954  1
  H  H4  1  0.48321207  0.24999963  0.07498055  1
  H  H5  1  0.20542468  0.53817747  0.20509290  1
  H  H6  1  0.20542468  0.96182197  0.20509290  1
  H  H7  1  0.70542615  0.53817747  0.29490895  1
  H  H8  1  0.70542615  0.96182197  0.29490895  1
  H  H9  1  0.98321354  0.24999963  0.42501899  1
  H  H10  1  0.01678487  0.75000053  0.57498009  1
  H  H11  1  0.29457453  0.03817657  0.70509244  1
  H  H12  1  0.29457453  0.46182107  0.70509244  1
  H  H13  1  0.79457600  0.03817657  0.79490849  1
  H  H14  1  0.79457600  0.46182107  0.79490849  1
  H  H15  1  0.51678634  0.75000053  0.92501852  1
  Li  Li16  1  0.95270443  0.75000053  0.00944394  1
  Li  Li17  1  0.45270296  0.75000053  0.49056024  1
  Li  Li18  1  0.54729545  0.24999963  0.50944347  1
  Li  Li19  1  0.04729624  0.24999963  0.99055978  1
