# generated using pymatgen
data_LaWO3
_symmetry_space_group_name_H-M   'P 1'
_cell_length_a   5.47776974
_cell_length_b   5.95035857
_cell_length_c   7.90232077
_cell_angle_alpha   90.00000000
_cell_angle_beta   90.00000000
_cell_angle_gamma   90.00000000
_symmetry_Int_Tables_number   1
_chemical_formula_structural   LaWO3
_chemical_formula_sum   'La4 W4 O12'
_cell_volume   257.57372840
_cell_formula_units_Z   4
loop_
 _symmetry_equiv_pos_site_id
 _symmetry_equiv_pos_as_xyz
  1  'x, y, z'
loop_
 _atom_site_type_symbol
 _atom_site_label
 _atom_site_symmetry_multiplicity
 _atom_site_fract_x
 _atom_site_fract_y
 _atom_site_fract_z
 _atom_site_occupancy
  La  La0  1  0.97649596  0.07230993  0.24999998  1
  La  La1  1  0.52350320  0.57231005  0.24999998  1
  La  La2  1  0.47649685  0.42769019  0.74999993  1
  La  La3  1  0.02350409  0.92769031  0.74999993  1
  O  O4  1  0.69713043  0.29245296  0.03903790  1
  O  O5  1  0.80287055  0.79245308  0.03903790  1
  O  O6  1  0.09161758  0.48609508  0.24999998  1
  O  O7  1  0.40838336  0.98609520  0.24999998  1
  O  O8  1  0.69713043  0.29245296  0.46096205  1
  O  O9  1  0.80287055  0.79245308  0.46096205  1
  O  O10  1  0.19712950  0.20754716  0.53903785  1
  O  O11  1  0.30286961  0.70754728  0.53903785  1
  O  O12  1  0.59161669  0.01390504  0.74999993  1
  O  O13  1  0.90838247  0.51390348  0.74999993  1
  O  O14  1  0.19712950  0.20754716  0.96096200  1
  O  O15  1  0.30286961  0.70754728  0.96096200  1
  W  W16  1  0.49999911  0.00000000  0.00000000  1
  W  W17  1  0.00000000  0.50000012  0.00000000  1
  W  W18  1  0.49999911  0.00000000  0.49999995  1
  W  W19  1  0.00000000  0.50000012  0.49999995  1
