# generated using pymatgen
data_MnTcO3
_symmetry_space_group_name_H-M   'P 1'
_cell_length_a   5.22233403
_cell_length_b   5.39534719
_cell_length_c   7.55679825
_cell_angle_alpha   90.00000000
_cell_angle_beta   90.00000000
_cell_angle_gamma   90.00000000
_symmetry_Int_Tables_number   1
_chemical_formula_structural   MnTcO3
_chemical_formula_sum   'Mn4 Tc4 O12'
_cell_volume   212.92265431
_cell_formula_units_Z   4
loop_
 _symmetry_equiv_pos_site_id
 _symmetry_equiv_pos_as_xyz
  1  'x, y, z'
loop_
 _atom_site_type_symbol
 _atom_site_label
 _atom_site_symmetry_multiplicity
 _atom_site_fract_x
 _atom_site_fract_y
 _atom_site_fract_z
 _atom_site_occupancy
  Mn  Mn0  1  0.98512848  0.06058183  0.25000006  1
  Mn  Mn1  1  0.51487132  0.56058487  0.25000006  1
  Mn  Mn2  1  0.48512791  0.43941565  0.75000017  1
  Mn  Mn3  1  0.01487266  0.93941684  0.75000017  1
  O  O4  1  0.68528171  0.30902738  0.06393713  1
  O  O5  1  0.81471809  0.80902857  0.06393713  1
  O  O6  1  0.13196781  0.44426057  0.25000006  1
  O  O7  1  0.36803467  0.94426175  0.25000006  1
  O  O8  1  0.68528171  0.30902738  0.43606298  1
  O  O9  1  0.81471809  0.80902857  0.43606298  1
  O  O10  1  0.18528114  0.19097195  0.56393725  1
  O  O11  1  0.31471752  0.69097129  0.56393725  1
  O  O12  1  0.63196647  0.05573877  0.75000017  1
  O  O13  1  0.86803333  0.55573995  0.75000017  1
  O  O14  1  0.18528114  0.19097195  0.93606310  1
  O  O15  1  0.31471752  0.69097129  0.93606310  1
  Tc  Tc16  1  0.50000057  0.00000000  0.00000000  1
  Tc  Tc17  1  0.00000000  0.49999933  0.00000000  1
  Tc  Tc18  1  0.50000057  0.00000000  0.50000012  1
  Tc  Tc19  1  0.00000000  0.49999933  0.50000012  1
