# generated using pymatgen
data_MnBiO3
_symmetry_space_group_name_H-M   'P 1'
_cell_length_a   5.65220181
_cell_length_b   5.72990102
_cell_length_c   8.22965780
_cell_angle_alpha   90.00000000
_cell_angle_beta   90.00000000
_cell_angle_gamma   90.00000000
_symmetry_Int_Tables_number   1
_chemical_formula_structural   MnBiO3
_chemical_formula_sum   'Mn4 Bi4 O12'
_cell_volume   266.53028088
_cell_formula_units_Z   4
loop_
 _symmetry_equiv_pos_site_id
 _symmetry_equiv_pos_as_xyz
  1  'x, y, z'
loop_
 _atom_site_type_symbol
 _atom_site_label
 _atom_site_symmetry_multiplicity
 _atom_site_fract_x
 _atom_site_fract_y
 _atom_site_fract_z
 _atom_site_occupancy
  Bi  Bi0  1  0.49999984  0.00000000  0.00000000  1
  Bi  Bi1  1  0.00000000  0.49999991  0.00000000  1
  Bi  Bi2  1  0.49999984  0.00000000  0.50000013  1
  Bi  Bi3  1  0.00000000  0.49999991  0.50000013  1
  Mn  Mn4  1  0.01013233  0.03321698  0.24999946  1
  Mn  Mn5  1  0.48986751  0.53321689  0.24999946  1
  Mn  Mn6  1  0.51013217  0.46678468  0.74999959  1
  Mn  Mn7  1  0.98986735  0.96678459  0.74999959  1
  O  O8  1  0.66033913  0.33648400  0.07739933  1
  O  O9  1  0.83966039  0.83648565  0.07739933  1
  O  O10  1  0.14235161  0.38786534  0.24999946  1
  O  O11  1  0.35764823  0.88786525  0.24999946  1
  O  O12  1  0.66033913  0.33648400  0.42260080  1
  O  O13  1  0.83966039  0.83648565  0.42260080  1
  O  O14  1  0.16033929  0.16351417  0.57739946  1
  O  O15  1  0.33966055  0.66351408  0.57739946  1
  O  O16  1  0.64235145  0.11213283  0.74999959  1
  O  O17  1  0.85764807  0.61213274  0.74999959  1
  O  O18  1  0.16033929  0.16351417  0.92260094  1
  O  O19  1  0.33966055  0.66351408  0.92260094  1
