# generated using pymatgen
data_KBrO3
_symmetry_space_group_name_H-M   'P 1'
_cell_length_a   4.34029710
_cell_length_b   4.34029731
_cell_length_c   4.34029672
_cell_angle_alpha   86.01799710
_cell_angle_beta   86.01799903
_cell_angle_gamma   86.01799810
_symmetry_Int_Tables_number   1
_chemical_formula_structural   KBrO3
_chemical_formula_sum   'K1 Br1 O3'
_cell_volume   81.19727541
_cell_formula_units_Z   1
loop_
 _symmetry_equiv_pos_site_id
 _symmetry_equiv_pos_as_xyz
  1  'x, y, z'
loop_
 _atom_site_type_symbol
 _atom_site_label
 _atom_site_symmetry_multiplicity
 _atom_site_fract_x
 _atom_site_fract_y
 _atom_site_fract_z
 _atom_site_occupancy
  Br  Br0  1  0.50516282  0.50516313  0.50516285  1
  K  K1  1  0.02641328  0.02641416  0.02641388  1
  O  O2  1  0.56772395  0.56772343  0.11797801  1
  O  O3  1  0.56772401  0.11797874  0.56772191  1
  O  O4  1  0.11797811  0.56772374  0.56772191  1
