# generated using pymatgen
data_CeMoO3
_symmetry_space_group_name_H-M   'P 1'
_cell_length_a   5.55914410
_cell_length_b   5.94116011
_cell_length_c   8.00934700
_cell_angle_alpha   90.00000000
_cell_angle_beta   90.00000000
_cell_angle_gamma   90.00000000
_symmetry_Int_Tables_number   1
_chemical_formula_structural   CeMoO3
_chemical_formula_sum   'Ce4 Mo4 O12'
_cell_volume   264.53083173
_cell_formula_units_Z   4
loop_
 _symmetry_equiv_pos_site_id
 _symmetry_equiv_pos_as_xyz
  1  'x, y, z'
loop_
 _atom_site_type_symbol
 _atom_site_label
 _atom_site_symmetry_multiplicity
 _atom_site_fract_x
 _atom_site_fract_y
 _atom_site_fract_z
 _atom_site_occupancy
  Ce  Ce0  1  0.98208463  0.06377206  0.25000041  1
  Ce  Ce1  1  0.51791606  0.56377205  0.25000041  1
  Ce  Ce2  1  0.48208320  0.43622793  0.74999997  1
  Ce  Ce3  1  0.01791643  0.93622793  0.74999997  1
  Mo  Mo4  1  0.49999963  0.00000000  0.00000000  1
  Mo  Mo5  1  0.00000000  0.49999999  0.00000000  1
  Mo  Mo6  1  0.49999963  0.00000000  0.49999956  1
  Mo  Mo7  1  0.00000000  0.49999999  0.49999956  1
  O  O8  1  0.69257424  0.29972092  0.05102164  1
  O  O9  1  0.80742645  0.79972092  0.05102164  1
  O  O10  1  0.10103714  0.46257801  0.25000041  1
  O  O11  1  0.39896250  0.96257800  0.25000041  1
  O  O12  1  0.69257424  0.29972092  0.44897793  1
  O  O13  1  0.80742645  0.79972092  0.44897793  1
  O  O14  1  0.19257461  0.20027907  0.55102245  1
  O  O15  1  0.30742502  0.70027906  0.55102245  1
  O  O16  1  0.60103857  0.03742198  0.74999997  1
  O  O17  1  0.89896213  0.53742198  0.74999997  1
  O  O18  1  0.19257461  0.20027907  0.94897749  1
  O  O19  1  0.30742502  0.70027906  0.94897749  1
