# generated using pymatgen
data_CuTeO3
_symmetry_space_group_name_H-M   'P 1'
_cell_length_a   7.12061001
_cell_length_b   5.61798454
_cell_length_c   5.94798905
_cell_angle_alpha   90.00000000
_cell_angle_beta   90.00000000
_cell_angle_gamma   90.00000000
_symmetry_Int_Tables_number   1
_chemical_formula_structural   CuTeO3
_chemical_formula_sum   'Cu4 Te4 O12'
_cell_volume   237.94024272
_cell_formula_units_Z   4
loop_
 _symmetry_equiv_pos_site_id
 _symmetry_equiv_pos_as_xyz
  1  'x, y, z'
loop_
 _atom_site_type_symbol
 _atom_site_label
 _atom_site_symmetry_multiplicity
 _atom_site_fract_x
 _atom_site_fract_y
 _atom_site_fract_z
 _atom_site_occupancy
  Cu  Cu0  1  0.00000000  0.49999960  0.00000000  1
  Cu  Cu1  1  0.50000070  0.49999960  0.00000000  1
  Cu  Cu2  1  0.00000000  0.00000000  0.49999924  1
  Cu  Cu3  1  0.50000070  0.00000000  0.49999924  1
  O  O4  1  0.24999965  0.65482024  0.04181077  1
  O  O5  1  0.05668896  0.10031533  0.19548624  1
  O  O6  1  0.44331174  0.10031533  0.19548624  1
  O  O7  1  0.55668826  0.60031493  0.30451300  1
  O  O8  1  0.94331103  0.60031493  0.30451300  1
  O  O9  1  0.75000035  0.15482065  0.45819015  1
  O  O10  1  0.24999965  0.84517855  0.54181001  1
  O  O11  1  0.05668896  0.39968604  0.69548716  1
  O  O12  1  0.44331174  0.39968604  0.69548716  1
  O  O13  1  0.55668826  0.89968564  0.80451392  1
  O  O14  1  0.94331103  0.89968564  0.80451392  1
  O  O15  1  0.75000035  0.34517895  0.95818939  1
  Te  Te16  1  0.24999965  0.99861160  0.97894414  1
  Te  Te17  1  0.75000035  0.49861120  0.52105510  1
  Te  Te18  1  0.24999965  0.50138799  0.47894506  1
  Te  Te19  1  0.75000035  0.00138840  0.02105586  1
