# generated using pymatgen
data_GdPbO3
_symmetry_space_group_name_H-M   'P 1'
_cell_length_a   5.83780070
_cell_length_b   6.08479870
_cell_length_c   8.53577437
_cell_angle_alpha   90.00000000
_cell_angle_beta   90.00000000
_cell_angle_gamma   90.00000000
_symmetry_Int_Tables_number   1
_chemical_formula_structural   GdPbO3
_chemical_formula_sum   'Gd4 Pb4 O12'
_cell_volume   303.20642956
_cell_formula_units_Z   4
loop_
 _symmetry_equiv_pos_site_id
 _symmetry_equiv_pos_as_xyz
  1  'x, y, z'
loop_
 _atom_site_type_symbol
 _atom_site_label
 _atom_site_symmetry_multiplicity
 _atom_site_fract_x
 _atom_site_fract_y
 _atom_site_fract_z
 _atom_site_occupancy
  Gd  Gd0  1  0.49999994  0.00000000  0.00000000  1
  Gd  Gd1  1  0.00000000  0.50000011  0.00000000  1
  Gd  Gd2  1  0.49999994  0.00000000  0.50000033  1
  Gd  Gd3  1  0.00000000  0.50000011  0.50000033  1
  O  O4  1  0.67235423  0.32074685  0.07311112  1
  O  O5  1  0.82764559  0.82074695  0.07311112  1
  O  O6  1  0.14872382  0.41894730  0.25000075  1
  O  O7  1  0.35127784  0.91894741  0.25000075  1
  O  O8  1  0.67235423  0.32074685  0.42688804  1
  O  O9  1  0.82764559  0.82074695  0.42688804  1
  O  O10  1  0.17235429  0.17925326  0.57311145  1
  O  O11  1  0.32764565  0.67925337  0.57311145  1
  O  O12  1  0.64872376  0.08105280  0.74999991  1
  O  O13  1  0.85127778  0.58105127  0.74999991  1
  O  O14  1  0.17235429  0.17925326  0.92688837  1
  O  O15  1  0.32764565  0.67925337  0.92688837  1
  Pb  Pb16  1  0.98918245  0.04321918  0.25000075  1
  Pb  Pb17  1  0.51081566  0.54322093  0.25000075  1
  Pb  Pb18  1  0.48918422  0.45677929  0.74999991  1
  Pb  Pb19  1  0.01081572  0.95677939  0.74999991  1
