# generated using pymatgen
data_HfGeO3
_symmetry_space_group_name_H-M   'P 1'
_cell_length_a   5.42060028
_cell_length_b   5.75572405
_cell_length_c   7.86033012
_cell_angle_alpha   90.00000000
_cell_angle_beta   90.00000000
_cell_angle_gamma   90.00000000
_symmetry_Int_Tables_number   1
_chemical_formula_structural   HfGeO3
_chemical_formula_sum   'Hf4 Ge4 O12'
_cell_volume   245.23820751
_cell_formula_units_Z   4
loop_
 _symmetry_equiv_pos_site_id
 _symmetry_equiv_pos_as_xyz
  1  'x, y, z'
loop_
 _atom_site_type_symbol
 _atom_site_label
 _atom_site_symmetry_multiplicity
 _atom_site_fract_x
 _atom_site_fract_y
 _atom_site_fract_z
 _atom_site_occupancy
  Ge  Ge0  1  0.98799390  0.02208931  0.24999968  1
  Ge  Ge1  1  0.51200602  0.52209070  0.24999968  1
  Ge  Ge2  1  0.48799392  0.47791033  0.75000031  1
  Ge  Ge3  1  0.01200605  0.97790998  0.75000031  1
  Hf  Hf4  1  0.49999997  0.00000000  0.00000000  1
  Hf  Hf5  1  0.00000000  0.49999965  0.00000000  1
  Hf  Hf6  1  0.49999997  0.00000000  0.50000063  1
  Hf  Hf7  1  0.00000000  0.49999965  0.50000063  1
  O  O8  1  0.67646383  0.31236383  0.05822147  1
  O  O9  1  0.82353610  0.81236521  0.05822147  1
  O  O10  1  0.12905951  0.47734394  0.24999968  1
  O  O11  1  0.37094047  0.97734359  0.24999968  1
  O  O12  1  0.67646383  0.31236383  0.44177916  1
  O  O13  1  0.82353610  0.81236521  0.44177916  1
  O  O14  1  0.17646385  0.18763582  0.55822083  1
  O  O15  1  0.32353612  0.68763547  0.55822083  1
  O  O16  1  0.62905948  0.02265571  0.75000031  1
  O  O17  1  0.87094044  0.52265536  0.75000031  1
  O  O18  1  0.17646385  0.18763582  0.94177851  1
  O  O19  1  0.32353612  0.68763547  0.94177851  1
