# generated using pymatgen
data_BaAsS3
_symmetry_space_group_name_H-M   'P 1'
_cell_length_a   6.95238069
_cell_length_b   6.95238069
_cell_length_c   6.95238069
_cell_angle_alpha   120.00001310
_cell_angle_beta   120.00001310
_cell_angle_gamma   89.99997730
_symmetry_Int_Tables_number   1
_chemical_formula_structural   BaAsS3
_chemical_formula_sum   'Ba2 As2 S6'
_cell_volume   237.62139961
_cell_formula_units_Z   2
loop_
 _symmetry_equiv_pos_site_id
 _symmetry_equiv_pos_as_xyz
  1  'x, y, z'
loop_
 _atom_site_type_symbol
 _atom_site_label
 _atom_site_symmetry_multiplicity
 _atom_site_fract_x
 _atom_site_fract_y
 _atom_site_fract_z
 _atom_site_occupancy
  As  As0  1  0.00000000  0.00000000  0.00000000  1
  As  As1  1  0.50000000  0.50000000  0.00000000  1
  Ba  Ba2  1  0.25000119  0.75000119  0.50000000  1
  Ba  Ba3  1  0.74999881  0.24999881  0.50000000  1
  S  S4  1  0.24994891  0.24994891  0.49989783  1
  S  S5  1  0.24994932  0.24994932  0.00000000  1
  S  S6  1  0.75005068  0.75005068  0.00000000  1
  S  S7  1  0.75005109  0.75005109  0.50010217  1
  S  S8  1  0.24994891  0.75005109  0.00000000  1
  S  S9  1  0.75005109  0.24994891  0.00000000  1
