# generated using pymatgen
data_LaYbO3
_symmetry_space_group_name_H-M   'P 1'
_cell_length_a   5.92694100
_cell_length_b   6.13268300
_cell_length_c   8.46153000
_cell_angle_alpha   90.00000000
_cell_angle_beta   90.00000000
_cell_angle_gamma   90.00000000
_symmetry_Int_Tables_number   1
_chemical_formula_structural   LaYbO3
_chemical_formula_sum   'La4 Yb4 O12'
_cell_volume   307.56011816
_cell_formula_units_Z   4
loop_
 _symmetry_equiv_pos_site_id
 _symmetry_equiv_pos_as_xyz
  1  'x, y, z'
loop_
 _atom_site_type_symbol
 _atom_site_label
 _atom_site_symmetry_multiplicity
 _atom_site_fract_x
 _atom_site_fract_y
 _atom_site_fract_z
 _atom_site_occupancy
  La  La0  1  0.51168900  0.94509100  0.48226400  1
  La  La1  1  0.48831100  0.05490900  0.98226400  1
  La  La2  1  0.98831100  0.44509100  0.48226400  1
  La  La3  1  0.01168900  0.55490900  0.98226400  1
  Yb  Yb4  1  0.99904300  0.99438900  0.73982500  1
  Yb  Yb5  1  0.00095700  0.00561100  0.23982500  1
  Yb  Yb6  1  0.50095700  0.49438900  0.73982500  1
  Yb  Yb7  1  0.49904300  0.50561100  0.23982500  1
  O  O8  1  0.36193200  0.57942200  0.49217700  1
  O  O9  1  0.63806800  0.42057800  0.99217700  1
  O  O10  1  0.13806800  0.07942200  0.49217700  1
  O  O11  1  0.86193200  0.92057800  0.99217700  1
  O  O12  1  0.30291300  0.79512200  0.82459900  1
  O  O13  1  0.69708700  0.20487800  0.32459900  1
  O  O14  1  0.19708700  0.29512200  0.82459900  1
  O  O15  1  0.80291300  0.70487800  0.32459900  1
  O  O16  1  0.83483300  0.66105100  0.68493400  1
  O  O17  1  0.16516700  0.33894900  0.18493400  1
  O  O18  1  0.66516700  0.16105100  0.68493400  1
  O  O19  1  0.33483300  0.83894900  0.18493400  1
