# generated using pymatgen
data_BiSbO3
_symmetry_space_group_name_H-M   'P 1'
_cell_length_a   5.78252101
_cell_length_b   6.29079137
_cell_length_c   8.41271890
_cell_angle_alpha   90.00000000
_cell_angle_beta   90.00000000
_cell_angle_gamma   90.00000000
_symmetry_Int_Tables_number   1
_chemical_formula_structural   BiSbO3
_chemical_formula_sum   'Bi4 Sb4 O12'
_cell_volume   306.02639026
_cell_formula_units_Z   4
loop_
 _symmetry_equiv_pos_site_id
 _symmetry_equiv_pos_as_xyz
  1  'x, y, z'
loop_
 _atom_site_type_symbol
 _atom_site_label
 _atom_site_symmetry_multiplicity
 _atom_site_fract_x
 _atom_site_fract_y
 _atom_site_fract_z
 _atom_site_occupancy
  Bi  Bi0  1  0.98570329  0.03603044  0.25000003  1
  Bi  Bi1  1  0.51429817  0.53603113  0.25000003  1
  Bi  Bi2  1  0.48570165  0.46397024  0.75000010  1
  Bi  Bi3  1  0.01429826  0.96397093  0.75000010  1
  O  O4  1  0.66268674  0.31810783  0.06670138  1
  O  O5  1  0.83731127  0.81810852  0.06670138  1
  O  O6  1  0.15091687  0.43826124  0.25000003  1
  O  O7  1  0.34908304  0.93826192  0.25000003  1
  O  O8  1  0.66268674  0.31810783  0.43329868  1
  O  O9  1  0.83731127  0.81810852  0.43329868  1
  O  O10  1  0.16268683  0.18189285  0.56670026  1
  O  O11  1  0.33731136  0.68189195  0.56670026  1
  O  O12  1  0.65091852  0.06173786  0.75000010  1
  O  O13  1  0.84908295  0.56173855  0.75000010  1
  O  O14  1  0.16268683  0.18189285  0.93329993  1
  O  O15  1  0.33731136  0.68189195  0.93329993  1
  Sb  Sb16  1  0.49999991  0.00000000  0.00000000  1
  Sb  Sb17  1  0.00000000  0.49999910  0.00000000  1
  Sb  Sb18  1  0.49999991  0.00000000  0.50000007  1
  Sb  Sb19  1  0.00000000  0.49999910  0.50000007  1
