# generated using pymatgen
data_KSnO3
_symmetry_space_group_name_H-M   'P 1'
_cell_length_a   5.81151355
_cell_length_b   5.81466515
_cell_length_c   8.22818574
_cell_angle_alpha   90.00000000
_cell_angle_beta   90.00000000
_cell_angle_gamma   89.99970327
_symmetry_Int_Tables_number   1
_chemical_formula_structural   KSnO3
_chemical_formula_sum   'K4 Sn4 O12'
_cell_volume   278.04689597
_cell_formula_units_Z   4
loop_
 _symmetry_equiv_pos_site_id
 _symmetry_equiv_pos_as_xyz
  1  'x, y, z'
loop_
 _atom_site_type_symbol
 _atom_site_label
 _atom_site_symmetry_multiplicity
 _atom_site_fract_x
 _atom_site_fract_y
 _atom_site_fract_z
 _atom_site_occupancy
  K  K0  1  0.00050589  0.00029752  0.25000043  1
  K  K1  1  0.49949337  0.50029751  0.25000043  1
  K  K2  1  0.50050515  0.49970246  0.75000008  1
  K  K3  1  0.99949435  0.99970244  0.75000008  1
  O  O4  1  0.74840163  0.25158091  0.00000000  1
  O  O5  1  0.75159744  0.75158046  0.00000000  1
  O  O6  1  0.49994721  0.00000000  0.25000043  1
  O  O7  1  0.00000000  0.50002535  0.25000043  1
  O  O8  1  0.74840163  0.25158091  0.49990121  1
  O  O9  1  0.75159744  0.75158046  0.49990121  1
  O  O10  1  0.24840280  0.24841951  0.50009931  1
  O  O11  1  0.25159689  0.74842078  0.50009931  1
  O  O12  1  0.50005218  0.00000000  0.75000008  1
  O  O13  1  0.00000000  0.49997548  0.75000008  1
  O  O14  1  0.24840280  0.24841951  0.00000000  1
  O  O15  1  0.25159689  0.74842078  0.00000000  1
  Sn  Sn16  1  0.50000056  0.00000000  0.00000000  1
  Sn  Sn17  1  0.00000000  0.49999956  0.00000000  1
  Sn  Sn18  1  0.50000056  0.00000000  0.49999965  1
  Sn  Sn19  1  0.00000000  0.49999956  0.49999965  1
