# generated using pymatgen
data_ThNiO3
_symmetry_space_group_name_H-M   'P 1'
_cell_length_a   5.38004999
_cell_length_b   5.84640656
_cell_length_c   7.71136457
_cell_angle_alpha   90.00000000
_cell_angle_beta   90.00000000
_cell_angle_gamma   90.00000000
_symmetry_Int_Tables_number   1
_chemical_formula_structural   ThNiO3
_chemical_formula_sum   'Th4 Ni4 O12'
_cell_volume   242.55294907
_cell_formula_units_Z   4
loop_
 _symmetry_equiv_pos_site_id
 _symmetry_equiv_pos_as_xyz
  1  'x, y, z'
loop_
 _atom_site_type_symbol
 _atom_site_label
 _atom_site_symmetry_multiplicity
 _atom_site_fract_x
 _atom_site_fract_y
 _atom_site_fract_z
 _atom_site_occupancy
  Ni  Ni0  1  0.50000093  0.00000000  0.00000000  1
  Ni  Ni1  1  0.00000000  0.49999944  0.00000000  1
  Ni  Ni2  1  0.50000093  0.00000000  0.49999970  1
  Ni  Ni3  1  0.00000000  0.49999944  0.49999970  1
  O  O4  1  0.68661258  0.30862719  0.05492024  1
  O  O5  1  0.81338835  0.80862662  0.05492024  1
  O  O6  1  0.10789491  0.46812858  0.24999985  1
  O  O7  1  0.39210602  0.96812802  0.24999985  1
  O  O8  1  0.68661258  0.30862719  0.44508076  1
  O  O9  1  0.81338835  0.80862662  0.44508076  1
  O  O10  1  0.18661165  0.19137225  0.55491994  1
  O  O11  1  0.31338928  0.69137169  0.55491994  1
  O  O12  1  0.60789398  0.03187086  0.74999956  1
  O  O13  1  0.89210509  0.53187030  0.74999956  1
  O  O14  1  0.18661165  0.19137225  0.94508046  1
  O  O15  1  0.31338928  0.69137169  0.94508046  1
  Th  Th16  1  0.97893328  0.08064099  0.24999985  1
  Th  Th17  1  0.52106579  0.58064214  0.24999985  1
  Th  Th18  1  0.47893421  0.41935845  0.74999956  1
  Th  Th19  1  0.02106672  0.91935789  0.74999956  1
