# generated using pymatgen
data_UTaO3
_symmetry_space_group_name_H-M   'P 1'
_cell_length_a   5.48286418
_cell_length_b   6.11944955
_cell_length_c   7.78646828
_cell_angle_alpha   90.00000000
_cell_angle_beta   90.00000000
_cell_angle_gamma   90.00000000
_symmetry_Int_Tables_number   1
_chemical_formula_structural   UTaO3
_chemical_formula_sum   'U4 Ta4 O12'
_cell_volume   261.25244591
_cell_formula_units_Z   4
loop_
 _symmetry_equiv_pos_site_id
 _symmetry_equiv_pos_as_xyz
  1  'x, y, z'
loop_
 _atom_site_type_symbol
 _atom_site_label
 _atom_site_symmetry_multiplicity
 _atom_site_fract_x
 _atom_site_fract_y
 _atom_site_fract_z
 _atom_site_occupancy
  O  O0  1  0.68463122  0.29692213  0.03856819  1
  O  O1  1  0.81536763  0.79692299  0.03856819  1
  O  O2  1  0.13265694  0.46123593  0.24999909  1
  O  O3  1  0.36734450  0.96123678  0.24999909  1
  O  O4  1  0.68463122  0.29692213  0.46143128  1
  O  O5  1  0.81536763  0.79692299  0.46143128  1
  O  O6  1  0.18463160  0.20307709  0.53856894  1
  O  O7  1  0.31536802  0.70307958  0.53856894  1
  O  O8  1  0.63265656  0.03876492  0.74999984  1
  O  O9  1  0.86734412  0.53876414  0.74999984  1
  O  O10  1  0.18463160  0.20307709  0.96143074  1
  O  O11  1  0.31536802  0.70307958  0.96143074  1
  Ta  Ta12  1  0.49999962  0.00000000  0.00000000  1
  Ta  Ta13  1  0.00000000  0.49999922  0.00000000  1
  Ta  Ta14  1  0.49999962  0.00000000  0.50000075  1
  Ta  Ta15  1  0.00000000  0.49999922  0.50000075  1
  U  U16  1  0.96311341  0.08740492  0.24999909  1
  U  U17  1  0.53688727  0.58740414  0.24999909  1
  U  U18  1  0.46311379  0.41259267  0.74999984  1
  U  U19  1  0.03688765  0.91259515  0.74999984  1
