# generated using pymatgen
data_YbPbO3
_symmetry_space_group_name_H-M   'P 1'
_cell_length_a   5.61305092
_cell_length_b   5.88874478
_cell_length_c   8.12471829
_cell_angle_alpha   90.00000000
_cell_angle_beta   90.00000000
_cell_angle_gamma   90.00000000
_symmetry_Int_Tables_number   1
_chemical_formula_structural   YbPbO3
_chemical_formula_sum   'Yb4 Pb4 O12'
_cell_volume   268.55301058
_cell_formula_units_Z   4
loop_
 _symmetry_equiv_pos_site_id
 _symmetry_equiv_pos_as_xyz
  1  'x, y, z'
loop_
 _atom_site_type_symbol
 _atom_site_label
 _atom_site_symmetry_multiplicity
 _atom_site_fract_x
 _atom_site_fract_y
 _atom_site_fract_z
 _atom_site_occupancy
  O  O0  1  0.68591931  0.30898775  0.07109170  1
  O  O1  1  0.81408134  0.80898734  0.07109170  1
  O  O2  1  0.13780385  0.43622709  0.25000005  1
  O  O3  1  0.36219696  0.93622838  0.25000005  1
  O  O4  1  0.68591931  0.30898775  0.42890841  1
  O  O5  1  0.81408134  0.80898734  0.42890841  1
  O  O6  1  0.18591850  0.19101354  0.57109180  1
  O  O7  1  0.31408231  0.69101314  0.57109180  1
  O  O8  1  0.63780287  0.06377250  0.75000016  1
  O  O9  1  0.86219599  0.56377380  0.75000016  1
  O  O10  1  0.18591850  0.19101354  0.92890851  1
  O  O11  1  0.31408231  0.69101314  0.92890851  1
  Pb  Pb12  1  0.50000081  0.00000000  0.00000000  1
  Pb  Pb13  1  0.00000000  0.49999959  0.00000000  1
  Pb  Pb14  1  0.50000081  0.00000000  0.50000011  1
  Pb  Pb15  1  0.00000000  0.49999959  0.50000011  1
  Yb  Yb16  1  0.97858724  0.06694466  0.25000005  1
  Yb  Yb17  1  0.52141162  0.56694425  0.25000005  1
  Yb  Yb18  1  0.47858821  0.43305664  0.75000016  1
  Yb  Yb19  1  0.02141260  0.93305623  0.75000016  1
