# generated using pymatgen
data_CdPdO3
_symmetry_space_group_name_H-M   'P 1'
_cell_length_a   5.37440785
_cell_length_b   5.56071842
_cell_length_c   7.66911805
_cell_angle_alpha   90.00000000
_cell_angle_beta   90.00000000
_cell_angle_gamma   90.00000000
_symmetry_Int_Tables_number   1
_chemical_formula_structural   CdPdO3
_chemical_formula_sum   'Cd4 Pd4 O12'
_cell_volume   229.19595439
_cell_formula_units_Z   4
loop_
 _symmetry_equiv_pos_site_id
 _symmetry_equiv_pos_as_xyz
  1  'x, y, z'
loop_
 _atom_site_type_symbol
 _atom_site_label
 _atom_site_symmetry_multiplicity
 _atom_site_fract_x
 _atom_site_fract_y
 _atom_site_fract_z
 _atom_site_occupancy
  Cd  Cd0  1  0.98170443  0.05667074  0.24999876  1
  Cd  Cd1  1  0.51829524  0.55667088  0.24999876  1
  Cd  Cd2  1  0.48170516  0.44332941  0.74999889  1
  Cd  Cd3  1  0.01829411  0.94332955  0.74999889  1
  O  O4  1  0.70015155  0.29523883  0.06728153  1
  O  O5  1  0.79984998  0.79523897  0.06728153  1
  O  O6  1  0.12155758  0.44549280  0.24999876  1
  O  O7  1  0.37844355  0.94549294  0.24999876  1
  O  O8  1  0.70015155  0.29523883  0.43271860  1
  O  O9  1  0.79984998  0.79523897  0.43271860  1
  O  O10  1  0.20015042  0.20476131  0.56728166  1
  O  O11  1  0.29984885  0.70476145  0.56728166  1
  O  O12  1  0.62155871  0.05450735  0.74999889  1
  O  O13  1  0.87844282  0.55450749  0.74999889  1
  O  O14  1  0.20015042  0.20476131  0.93271872  1
  O  O15  1  0.29984885  0.70476145  0.93271872  1
  Pd  Pd16  1  0.50000113  0.00000000  0.00000000  1
  Pd  Pd17  1  0.00000000  0.50000014  0.00000000  1
  Pd  Pd18  1  0.50000113  0.00000000  0.50000013  1
  Pd  Pd19  1  0.00000000  0.50000014  0.50000013  1
