# generated using pymatgen
data_BaUO3
_symmetry_space_group_name_H-M   'P 1'
_cell_length_a   6.27924715
_cell_length_b   8.84497846
_cell_length_c   6.28166944
_cell_angle_alpha   90.00000000
_cell_angle_beta   90.00000000
_cell_angle_gamma   90.00000000
_symmetry_Int_Tables_number   1
_chemical_formula_structural   BaUO3
_chemical_formula_sum   'Ba4 U4 O12'
_cell_volume   348.88270078
_cell_formula_units_Z   4
loop_
 _symmetry_equiv_pos_site_id
 _symmetry_equiv_pos_as_xyz
  1  'x, y, z'
loop_
 _atom_site_type_symbol
 _atom_site_label
 _atom_site_symmetry_multiplicity
 _atom_site_fract_x
 _atom_site_fract_y
 _atom_site_fract_z
 _atom_site_occupancy
  Ba  Ba0  1  0.02477845  0.24999948  0.00875245  1
  Ba  Ba1  1  0.52477788  0.24999948  0.49124839  1
  Ba  Ba2  1  0.47522098  0.74999957  0.50875170  1
  Ba  Ba3  1  0.97522201  0.74999957  0.99124764  1
  O  O4  1  0.51690910  0.74999957  0.08876144  1
  O  O5  1  0.77969697  0.04736925  0.22490836  1
  O  O6  1  0.77969697  0.45262971  0.22490836  1
  O  O7  1  0.27969754  0.04736925  0.27509248  1
  O  O8  1  0.27969754  0.45262971  0.27509248  1
  O  O9  1  0.01690808  0.74999957  0.41123940  1
  O  O10  1  0.98309238  0.24999948  0.58876068  1
  O  O11  1  0.72030291  0.54736934  0.72490761  1
  O  O12  1  0.72030291  0.95262979  0.72490761  1
  O  O13  1  0.22030189  0.54736934  0.77509172  1
  O  O14  1  0.22030189  0.95262979  0.77509172  1
  O  O15  1  0.48309135  0.24999948  0.91123865  1
  U  U16  1  0.49999943  0.00000000  0.00000000  1
  U  U17  1  0.49999943  0.50000009  0.00000000  1
  U  U18  1  0.00000000  0.00000000  0.49999925  1
  U  U19  1  0.00000000  0.50000009  0.49999925  1
