# generated using pymatgen
data_TmNpO3
_symmetry_space_group_name_H-M   'P 1'
_cell_length_a   5.75775640
_cell_length_b   6.03379051
_cell_length_c   8.28766030
_cell_angle_alpha   90.00000000
_cell_angle_beta   90.00000000
_cell_angle_gamma   90.00000000
_symmetry_Int_Tables_number   1
_chemical_formula_structural   TmNpO3
_chemical_formula_sum   'Tm4 Np4 O12'
_cell_volume   287.92240154
_cell_formula_units_Z   4
loop_
 _symmetry_equiv_pos_site_id
 _symmetry_equiv_pos_as_xyz
  1  'x, y, z'
loop_
 _atom_site_type_symbol
 _atom_site_label
 _atom_site_symmetry_multiplicity
 _atom_site_fract_x
 _atom_site_fract_y
 _atom_site_fract_z
 _atom_site_occupancy
  Np  Np0  1  0.98695388  0.05561181  0.24999939  1
  Np  Np1  1  0.51304532  0.55561094  0.24999939  1
  Np  Np2  1  0.48695356  0.44438898  0.75000058  1
  Np  Np3  1  0.01304675  0.94438645  0.75000058  1
  O  O4  1  0.68495777  0.31093224  0.06388051  1
  O  O5  1  0.81504490  0.81093303  0.06388051  1
  O  O6  1  0.12698696  0.44826879  0.24999939  1
  O  O7  1  0.37301161  0.94826792  0.24999939  1
  O  O8  1  0.68495777  0.31093224  0.43611826  1
  O  O9  1  0.81504490  0.81093303  0.43611826  1
  O  O10  1  0.18495746  0.18906689  0.56388050  1
  O  O11  1  0.31504285  0.68906767  0.56388050  1
  O  O12  1  0.62698728  0.05173365  0.75000058  1
  O  O13  1  0.87301366  0.55173278  0.75000058  1
  O  O14  1  0.18495746  0.18906689  0.93611945  1
  O  O15  1  0.31504285  0.68906767  0.93611945  1
  Tm  Tm16  1  0.49999858  0.00000000  0.00000000  1
  Tm  Tm17  1  0.00000000  0.49999913  0.00000000  1
  Tm  Tm18  1  0.49999858  0.00000000  0.49999998  1
  Tm  Tm19  1  0.00000000  0.49999913  0.49999998  1
