# generated using pymatgen
data_TcHgO3
_symmetry_space_group_name_H-M   'P 1'
_cell_length_a   5.52685237
_cell_length_b   5.54176666
_cell_length_c   7.76887004
_cell_angle_alpha   90.00000000
_cell_angle_beta   90.00000000
_cell_angle_gamma   90.00000000
_symmetry_Int_Tables_number   1
_chemical_formula_structural   TcHgO3
_chemical_formula_sum   'Tc4 Hg4 O12'
_cell_volume   237.94903964
_cell_formula_units_Z   4
loop_
 _symmetry_equiv_pos_site_id
 _symmetry_equiv_pos_as_xyz
  1  'x, y, z'
loop_
 _atom_site_type_symbol
 _atom_site_label
 _atom_site_symmetry_multiplicity
 _atom_site_fract_x
 _atom_site_fract_y
 _atom_site_fract_z
 _atom_site_occupancy
  Hg  Hg0  1  0.99566299  0.00684619  0.25000032  1
  Hg  Hg1  1  0.50433770  0.50684559  0.25000032  1
  Hg  Hg2  1  0.49566368  0.49315501  0.74999967  1
  Hg  Hg3  1  0.00433701  0.99315441  0.74999967  1
  O  O4  1  0.73719718  0.26259496  0.04469505  1
  O  O5  1  0.76280127  0.76259436  0.04469505  1
  O  O6  1  0.09512286  0.50117411  0.25000032  1
  O  O7  1  0.40487783  0.00117291  0.25000032  1
  O  O8  1  0.73719718  0.26259496  0.45530560  1
  O  O9  1  0.76280127  0.76259436  0.45530560  1
  O  O10  1  0.23719830  0.23740444  0.54469440  1
  O  O11  1  0.26280239  0.73740564  0.54469440  1
  O  O12  1  0.59512174  0.99882709  0.74999967  1
  O  O13  1  0.90487852  0.49882649  0.74999967  1
  O  O14  1  0.23719830  0.23740444  0.95530495  1
  O  O15  1  0.26280239  0.73740564  0.95530495  1
  Tc  Tc16  1  0.50000069  0.00000000  0.00000000  1
  Tc  Tc17  1  0.00000000  0.49999940  0.00000000  1
  Tc  Tc18  1  0.50000069  0.00000000  0.50000064  1
  Tc  Tc19  1  0.00000000  0.49999940  0.50000064  1
