# generated using pymatgen
data_CdAgO3
_symmetry_space_group_name_H-M   'P 1'
_cell_length_a   5.44790456
_cell_length_b   5.64858122
_cell_length_c   7.86617744
_cell_angle_alpha   90.00000000
_cell_angle_beta   90.00000000
_cell_angle_gamma   90.00000000
_symmetry_Int_Tables_number   1
_chemical_formula_structural   CdAgO3
_chemical_formula_sum   'Cd4 Ag4 O12'
_cell_volume   242.06533831
_cell_formula_units_Z   4
loop_
 _symmetry_equiv_pos_site_id
 _symmetry_equiv_pos_as_xyz
  1  'x, y, z'
loop_
 _atom_site_type_symbol
 _atom_site_label
 _atom_site_symmetry_multiplicity
 _atom_site_fract_x
 _atom_site_fract_y
 _atom_site_fract_z
 _atom_site_occupancy
  Ag  Ag0  1  0.50000142  0.00000000  0.00000000  1
  Ag  Ag1  1  0.00000000  0.49999989  0.00000000  1
  Ag  Ag2  1  0.50000142  0.00000000  0.50000016  1
  Ag  Ag3  1  0.00000000  0.49999989  0.50000016  1
  Cd  Cd4  1  0.98089824  0.05682666  0.24999945  1
  Cd  Cd5  1  0.51910050  0.55682655  0.24999945  1
  Cd  Cd6  1  0.48089866  0.44317323  0.74999961  1
  Cd  Cd7  1  0.01910276  0.94317490  0.74999961  1
  O  O8  1  0.70082358  0.29642311  0.07182014  1
  O  O9  1  0.79917700  0.79642300  0.07182014  1
  O  O10  1  0.12771516  0.43726555  0.24999945  1
  O  O11  1  0.37228442  0.93726368  0.24999945  1
  O  O12  1  0.70082358  0.29642311  0.42818002  1
  O  O13  1  0.79917700  0.79642300  0.42818002  1
  O  O14  1  0.20082217  0.20357678  0.57182031  1
  O  O15  1  0.29917741  0.70357668  0.57182031  1
  O  O16  1  0.62771658  0.06273611  0.74999961  1
  O  O17  1  0.87228400  0.56273600  0.74999961  1
  O  O18  1  0.20082217  0.20357678  0.92818018  1
  O  O19  1  0.29917741  0.70357668  0.92818018  1
