# generated using pymatgen
data_LaMoO3
_symmetry_space_group_name_H-M   'P 1'
_cell_length_a   5.54266695
_cell_length_b   5.90259020
_cell_length_c   7.98692414
_cell_angle_alpha   90.00000000
_cell_angle_beta   90.00000000
_cell_angle_gamma   90.00000000
_symmetry_Int_Tables_number   1
_chemical_formula_structural   LaMoO3
_chemical_formula_sum   'La4 Mo4 O12'
_cell_volume   261.30094199
_cell_formula_units_Z   4
loop_
 _symmetry_equiv_pos_site_id
 _symmetry_equiv_pos_as_xyz
  1  'x, y, z'
loop_
 _atom_site_type_symbol
 _atom_site_label
 _atom_site_symmetry_multiplicity
 _atom_site_fract_x
 _atom_site_fract_y
 _atom_site_fract_z
 _atom_site_occupancy
  La  La0  1  0.98341467  0.06350263  0.24999987  1
  La  La1  1  0.51658525  0.56350177  0.24999987  1
  La  La2  1  0.48341530  0.43649820  0.74999961  1
  La  La3  1  0.01658588  0.93649734  0.74999961  1
  Mo  Mo4  1  0.49999937  0.00000000  0.00000000  1
  Mo  Mo5  1  0.00000000  0.50000083  0.00000000  1
  Mo  Mo6  1  0.49999937  0.00000000  0.49999974  1
  Mo  Mo7  1  0.00000000  0.50000083  0.49999974  1
  O  O8  1  0.69438774  0.29806237  0.04911778  1
  O  O9  1  0.80561218  0.79806320  0.04911778  1
  O  O10  1  0.09601335  0.46764893  0.24999987  1
  O  O11  1  0.40398603  0.96764976  0.24999987  1
  O  O12  1  0.69438774  0.29806237  0.45088196  1
  O  O13  1  0.80561218  0.79806320  0.45088196  1
  O  O14  1  0.19438837  0.20193677  0.54911752  1
  O  O15  1  0.30561100  0.70193760  0.54911752  1
  O  O16  1  0.59601452  0.03235020  0.74999961  1
  O  O17  1  0.90398720  0.53235103  0.74999961  1
  O  O18  1  0.19438837  0.20193677  0.95088170  1
  O  O19  1  0.30561100  0.70193760  0.95088170  1
