# generated using pymatgen
data_Cu3PdN
_symmetry_space_group_name_H-M   'P 1'
_cell_length_a   3.87712721
_cell_length_b   3.87712721
_cell_length_c   3.87712721
_cell_angle_alpha   90.00000000
_cell_angle_beta   90.00000000
_cell_angle_gamma   90.00000000
_symmetry_Int_Tables_number   1
_chemical_formula_structural   Cu3PdN
_chemical_formula_sum   'Cu3 Pd1 N1'
_cell_volume   58.28142347
_cell_formula_units_Z   1
loop_
 _symmetry_equiv_pos_site_id
 _symmetry_equiv_pos_as_xyz
  1  'x, y, z'
loop_
 _atom_site_type_symbol
 _atom_site_label
 _atom_site_symmetry_multiplicity
 _atom_site_fract_x
 _atom_site_fract_y
 _atom_site_fract_z
 _atom_site_occupancy
  Cu  Cu0  1  0.49999907  0.00000000  0.00000000  1
  Cu  Cu1  1  0.00000000  0.49999907  0.00000000  1
  Cu  Cu2  1  0.00000000  0.00000000  0.49999907  1
  N  N3  1  0.00000000  0.00000000  0.00000000  1
  Pd  Pd4  1  0.49999907  0.49999907  0.49999907  1
