# generated using pymatgen
data_Gd3TlC
_symmetry_space_group_name_H-M   'P 1'
_cell_length_a   5.66542300
_cell_length_b   5.66542300
_cell_length_c   5.66542300
_cell_angle_alpha   90.00000000
_cell_angle_beta   90.00000000
_cell_angle_gamma   90.00000000
_symmetry_Int_Tables_number   1
_chemical_formula_structural   Gd3TlC
_chemical_formula_sum   'Gd3 Tl1 C1'
_cell_volume   181.84318270
_cell_formula_units_Z   1
loop_
 _symmetry_equiv_pos_site_id
 _symmetry_equiv_pos_as_xyz
  1  'x, y, z'
loop_
 _atom_site_type_symbol
 _atom_site_label
 _atom_site_symmetry_multiplicity
 _atom_site_fract_x
 _atom_site_fract_y
 _atom_site_fract_z
 _atom_site_occupancy
  C  C0  1  0.00000000  0.00000000  0.00000000  1
  Gd  Gd1  1  0.49999974  0.49999974  0.00000000  1
  Gd  Gd2  1  0.49999974  0.00000000  0.49999974  1
  Gd  Gd3  1  0.00000000  0.49999974  0.49999974  1
  Tl  Tl4  1  0.49999974  0.49999974  0.49999974  1
