# generated using pymatgen
data_PrAuO3
_symmetry_space_group_name_H-M   'P 1'
_cell_length_a   5.71272473
_cell_length_b   6.56148774
_cell_length_c   7.41652921
_cell_angle_alpha   90.00000000
_cell_angle_beta   90.00000000
_cell_angle_gamma   90.00000000
_symmetry_Int_Tables_number   1
_chemical_formula_structural   PrAuO3
_chemical_formula_sum   'Pr4 Au4 O12'
_cell_volume   278.00098287
_cell_formula_units_Z   4
loop_
 _symmetry_equiv_pos_site_id
 _symmetry_equiv_pos_as_xyz
  1  'x, y, z'
loop_
 _atom_site_type_symbol
 _atom_site_label
 _atom_site_symmetry_multiplicity
 _atom_site_fract_x
 _atom_site_fract_y
 _atom_site_fract_z
 _atom_site_occupancy
  Au  Au0  1  0.49999959  0.00000000  0.00000000  1
  Au  Au1  1  0.00000000  0.49999941  0.00000000  1
  Au  Au2  1  0.49999959  0.00000000  0.49999938  1
  Au  Au3  1  0.00000000  0.49999941  0.49999938  1
  O  O4  1  0.69943857  0.34972709  0.05443651  1
  O  O5  1  0.80056019  0.84972650  0.05443651  1
  O  O6  1  0.14329940  0.44120025  0.24999969  1
  O  O7  1  0.35670019  0.94119966  0.24999969  1
  O  O8  1  0.69943857  0.34972709  0.44556421  1
  O  O9  1  0.80056019  0.84972650  0.44556421  1
  O  O10  1  0.19943898  0.15027385  0.55443589  1
  O  O11  1  0.30056060  0.65027326  0.55443589  1
  O  O12  1  0.64329898  0.05880069  0.75000042  1
  O  O13  1  0.85669978  0.55880010  0.75000042  1
  O  O14  1  0.19943898  0.15027385  0.94556359  1
  O  O15  1  0.30056060  0.65027326  0.94556359  1
  Pr  Pr16  1  0.96776762  0.10042082  0.24999969  1
  Pr  Pr17  1  0.53223289  0.60042023  0.24999969  1
  Pr  Pr18  1  0.46776803  0.39957859  0.75000042  1
  Pr  Pr19  1  0.03223331  0.89957952  0.75000042  1
