# generated using pymatgen
data_TlClO3
_symmetry_space_group_name_H-M   'P 1'
_cell_length_a   4.37475781
_cell_length_b   4.37475826
_cell_length_c   4.37475864
_cell_angle_alpha   86.42446508
_cell_angle_beta   86.42448155
_cell_angle_gamma   86.42448252
_symmetry_Int_Tables_number   1
_chemical_formula_structural   TlClO3
_chemical_formula_sum   'Tl1 Cl1 O3'
_cell_volume   83.25689053
_cell_formula_units_Z   1
loop_
 _symmetry_equiv_pos_site_id
 _symmetry_equiv_pos_as_xyz
  1  'x, y, z'
loop_
 _atom_site_type_symbol
 _atom_site_label
 _atom_site_symmetry_multiplicity
 _atom_site_fract_x
 _atom_site_fract_y
 _atom_site_fract_z
 _atom_site_occupancy
  Cl  Cl0  1  0.49083248  0.49083318  0.49083331  1
  O  O1  1  0.55345419  0.55345491  0.15032659  1
  O  O2  1  0.55345435  0.15032607  0.55345297  1
  O  O3  1  0.15032658  0.55345467  0.55345298  1
  Tl  Tl4  1  0.01193270  0.01193286  0.01193377  1
