# generated using pymatgen
data_PrTm3S
_symmetry_space_group_name_H-M   'P 1'
_cell_length_a   5.25841389
_cell_length_b   5.25841389
_cell_length_c   5.25841389
_cell_angle_alpha   90.00000000
_cell_angle_beta   90.00000000
_cell_angle_gamma   90.00000000
_symmetry_Int_Tables_number   1
_chemical_formula_structural   PrTm3S
_chemical_formula_sum   'Pr1 Tm3 S1'
_cell_volume   145.39996412
_cell_formula_units_Z   1
loop_
 _symmetry_equiv_pos_site_id
 _symmetry_equiv_pos_as_xyz
  1  'x, y, z'
loop_
 _atom_site_type_symbol
 _atom_site_label
 _atom_site_symmetry_multiplicity
 _atom_site_fract_x
 _atom_site_fract_y
 _atom_site_fract_z
 _atom_site_occupancy
  Pr  Pr0  1  0.00000000  0.00000000  0.00000000  1
  S  S1  1  0.50000000  0.50000000  0.50000000  1
  Tm  Tm2  1  0.50000000  0.50000000  0.00000000  1
  Tm  Tm3  1  0.50000000  0.00000000  0.50000000  1
  Tm  Tm4  1  0.00000000  0.50000000  0.50000000  1
