# generated using pymatgen
data_TlBrO3
_symmetry_space_group_name_H-M   'P 1'
_cell_length_a   4.41297719
_cell_length_b   4.41297688
_cell_length_c   4.41297744
_cell_angle_alpha   87.46073938
_cell_angle_beta   87.46074376
_cell_angle_gamma   87.46075080
_symmetry_Int_Tables_number   1
_chemical_formula_structural   TlBrO3
_chemical_formula_sum   'Tl1 Br1 O3'
_cell_volume   85.69403224
_cell_formula_units_Z   1
loop_
 _symmetry_equiv_pos_site_id
 _symmetry_equiv_pos_as_xyz
  1  'x, y, z'
loop_
 _atom_site_type_symbol
 _atom_site_label
 _atom_site_symmetry_multiplicity
 _atom_site_fract_x
 _atom_site_fract_y
 _atom_site_fract_z
 _atom_site_occupancy
  Br  Br0  1  0.50193494  0.50193385  0.50193364  1
  O  O1  1  0.55909333  0.55909315  0.12241269  1
  O  O2  1  0.55909332  0.12241281  0.55909309  1
  O  O3  1  0.12241372  0.55909448  0.55909309  1
  Tl  Tl4  1  0.01146469  0.01146389  0.01146590  1
