# generated using pymatgen
data_RbClO3
_symmetry_space_group_name_H-M   'P 1'
_cell_length_a   4.38026716
_cell_length_b   4.38026756
_cell_length_c   4.38026716
_cell_angle_alpha   93.05922801
_cell_angle_beta   93.05923871
_cell_angle_gamma   86.94077199
_symmetry_Int_Tables_number   1
_chemical_formula_structural   RbClO3
_chemical_formula_sum   'Rb1 Cl1 O3'
_cell_volume   83.69606085
_cell_formula_units_Z   1
loop_
 _symmetry_equiv_pos_site_id
 _symmetry_equiv_pos_as_xyz
  1  'x, y, z'
loop_
 _atom_site_type_symbol
 _atom_site_label
 _atom_site_symmetry_multiplicity
 _atom_site_fract_x
 _atom_site_fract_y
 _atom_site_fract_z
 _atom_site_occupancy
  Cl  Cl0  1  0.53095943  0.53095865  0.46903924  1
  O  O1  1  0.46918278  0.46918193  0.13049189  1
  O  O2  1  0.46918175  0.86950801  0.53081693  1
  O  O3  1  0.86950845  0.46918193  0.53081755  1
  Rb  Rb4  1  0.00006785  0.00006707  0.99993082  1
