# generated using pymatgen
data_ReSnO3
_symmetry_space_group_name_H-M   'P 1'
_cell_length_a   5.51959800
_cell_length_b   5.57111977
_cell_length_c   8.21678796
_cell_angle_alpha   90.00000000
_cell_angle_beta   90.00000000
_cell_angle_gamma   90.00000000
_symmetry_Int_Tables_number   1
_chemical_formula_structural   ReSnO3
_chemical_formula_sum   'Re4 Sn4 O12'
_cell_volume   252.66903590
_cell_formula_units_Z   4
loop_
 _symmetry_equiv_pos_site_id
 _symmetry_equiv_pos_as_xyz
  1  'x, y, z'
loop_
 _atom_site_type_symbol
 _atom_site_label
 _atom_site_symmetry_multiplicity
 _atom_site_fract_x
 _atom_site_fract_y
 _atom_site_fract_z
 _atom_site_occupancy
  O  O0  1  0.73092461  0.27182327  0.00956822  1
  O  O1  1  0.76907594  0.77182509  0.00956822  1
  O  O2  1  0.06524388  0.44548854  0.25000037  1
  O  O3  1  0.43475630  0.94548856  0.25000037  1
  O  O4  1  0.73092461  0.27182327  0.49043130  1
  O  O5  1  0.76907594  0.77182509  0.49043130  1
  O  O6  1  0.23092443  0.22817495  0.50956773  1
  O  O7  1  0.26907576  0.72817677  0.50956773  1
  O  O8  1  0.56524406  0.05451148  0.74999988  1
  O  O9  1  0.93475648  0.55451150  0.74999988  1
  O  O10  1  0.23092443  0.22817495  0.99043203  1
  O  O11  1  0.26907576  0.72817677  0.99043203  1
  Re  Re12  1  0.50000018  0.00000000  0.00000000  1
  Re  Re13  1  0.00000000  0.50000002  0.00000000  1
  Re  Re14  1  0.50000018  0.00000000  0.49999952  1
  Re  Re15  1  0.00000000  0.50000002  0.49999952  1
  Sn  Sn16  1  0.02415937  0.03836033  0.25000037  1
  Sn  Sn17  1  0.47583900  0.53835856  0.25000037  1
  Sn  Sn18  1  0.52415955  0.46164148  0.74999988  1
  Sn  Sn19  1  0.97584099  0.96164150  0.74999988  1
