# generated using pymatgen
data_ScHgO3
_symmetry_space_group_name_H-M   'P 1'
_cell_length_a   4.12763565
_cell_length_b   4.12763565
_cell_length_c   4.17261407
_cell_angle_alpha   90.00000000
_cell_angle_beta   90.00000000
_cell_angle_gamma   90.00000000
_symmetry_Int_Tables_number   1
_chemical_formula_structural   ScHgO3
_chemical_formula_sum   'Sc1 Hg1 O3'
_cell_volume   71.09039501
_cell_formula_units_Z   1
loop_
 _symmetry_equiv_pos_site_id
 _symmetry_equiv_pos_as_xyz
  1  'x, y, z'
loop_
 _atom_site_type_symbol
 _atom_site_label
 _atom_site_symmetry_multiplicity
 _atom_site_fract_x
 _atom_site_fract_y
 _atom_site_fract_z
 _atom_site_occupancy
  Hg  Hg0  1  0.00000000  0.00000000  0.92082901  1
  O  O1  1  0.50000053  0.50000053  0.10204634  1
  O  O2  1  0.50000053  0.00000000  0.64592362  1
  O  O3  1  0.00000000  0.50000053  0.64592362  1
  Sc  Sc4  1  0.50000053  0.50000053  0.58527579  1
