# generated using pymatgen
data_ScHgO3
_symmetry_space_group_name_H-M   'P 1'
_cell_length_a   5.51769923
_cell_length_b   5.70481833
_cell_length_c   8.00116056
_cell_angle_alpha   90.00000000
_cell_angle_beta   90.00000000
_cell_angle_gamma   90.00000000
_symmetry_Int_Tables_number   1
_chemical_formula_structural   ScHgO3
_chemical_formula_sum   'Sc4 Hg4 O12'
_cell_volume   251.85630483
_cell_formula_units_Z   4
loop_
 _symmetry_equiv_pos_site_id
 _symmetry_equiv_pos_as_xyz
  1  'x, y, z'
loop_
 _atom_site_type_symbol
 _atom_site_label
 _atom_site_symmetry_multiplicity
 _atom_site_fract_x
 _atom_site_fract_y
 _atom_site_fract_z
 _atom_site_occupancy
  Hg  Hg0  1  0.98114264  0.05841027  0.24999998  1
  Hg  Hg1  1  0.51885757  0.55841042  0.24999998  1
  Hg  Hg2  1  0.48114257  0.44158812  0.74999995  1
  Hg  Hg3  1  0.01885750  0.94159002  0.74999995  1
  O  O4  1  0.68941235  0.30684062  0.06382949  1
  O  O5  1  0.81058605  0.80683901  0.06382949  1
  O  O6  1  0.11615349  0.43824884  0.24999998  1
  O  O7  1  0.38384658  0.93824898  0.24999998  1
  O  O8  1  0.68941235  0.30684062  0.43617047  1
  O  O9  1  0.81058605  0.80683901  0.43617047  1
  O  O10  1  0.18941228  0.19315953  0.56382946  1
  O  O11  1  0.31058598  0.69315967  0.56382946  1
  O  O12  1  0.61615356  0.06175306  0.74999995  1
  O  O13  1  0.88384665  0.56175146  0.74999995  1
  O  O14  1  0.18941228  0.19315953  0.93617044  1
  O  O15  1  0.31058598  0.69315967  0.93617044  1
  Sc  Sc16  1  0.50000007  0.00000000  0.00000000  1
  Sc  Sc17  1  0.00000000  0.50000015  0.00000000  1
  Sc  Sc18  1  0.50000007  0.00000000  0.49999997  1
  Sc  Sc19  1  0.00000000  0.50000015  0.49999997  1
