# generated using pymatgen
data_TaSnO3
_symmetry_space_group_name_H-M   'P 1'
_cell_length_a   5.60565379
_cell_length_b   5.83560670
_cell_length_c   8.09532587
_cell_angle_alpha   90.00000000
_cell_angle_beta   90.00000000
_cell_angle_gamma   90.00000000
_symmetry_Int_Tables_number   1
_chemical_formula_structural   TaSnO3
_chemical_formula_sum   'Ta4 Sn4 O12'
_cell_volume   264.81746345
_cell_formula_units_Z   4
loop_
 _symmetry_equiv_pos_site_id
 _symmetry_equiv_pos_as_xyz
  1  'x, y, z'
loop_
 _atom_site_type_symbol
 _atom_site_label
 _atom_site_symmetry_multiplicity
 _atom_site_fract_x
 _atom_site_fract_y
 _atom_site_fract_z
 _atom_site_occupancy
  O  O0  1  0.73409635  0.26424673  0.00182080  1
  O  O1  1  0.76590353  0.76424616  0.00182080  1
  O  O2  1  0.00825595  0.49246808  0.24999982  1
  O  O3  1  0.49174460  0.99246921  0.24999982  1
  O  O4  1  0.73409635  0.26424673  0.49817883  1
  O  O5  1  0.76590353  0.76424616  0.49817883  1
  O  O6  1  0.23409580  0.23575441  0.50182044  1
  O  O7  1  0.26590297  0.73575383  0.50182044  1
  O  O8  1  0.50825472  0.00753135  0.74999946  1
  O  O9  1  0.99174516  0.50753078  0.74999946  1
  O  O10  1  0.23409580  0.23575441  0.99817971  1
  O  O11  1  0.26590297  0.73575383  0.99817971  1
  Sn  Sn12  1  0.00504312  0.02474293  0.24999982  1
  Sn  Sn13  1  0.49495565  0.52474235  0.24999982  1
  Sn  Sn14  1  0.50504368  0.47525821  0.74999946  1
  Sn  Sn15  1  0.99495688  0.97525764  0.74999946  1
  Ta  Ta16  1  0.50000055  0.00000000  0.00000000  1
  Ta  Ta17  1  0.00000000  0.49999943  0.00000000  1
  Ta  Ta18  1  0.50000055  0.00000000  0.49999964  1
  Ta  Ta19  1  0.00000000  0.49999943  0.49999964  1
