# generated using pymatgen
data_Cr3AsN
_symmetry_space_group_name_H-M   'P 1'
_cell_length_a   5.88227900
_cell_length_b   5.88227900
_cell_length_c   5.88227900
_cell_angle_alpha   118.18890000
_cell_angle_beta   118.18890000
_cell_angle_gamma   93.16657000
_symmetry_Int_Tables_number   1
_chemical_formula_structural   Cr3AsN
_chemical_formula_sum   'Cr6 As2 N2'
_cell_volume   147.61622051
_cell_formula_units_Z   2
loop_
 _symmetry_equiv_pos_site_id
 _symmetry_equiv_pos_as_xyz
  1  'x, y, z'
loop_
 _atom_site_type_symbol
 _atom_site_label
 _atom_site_symmetry_multiplicity
 _atom_site_fract_x
 _atom_site_fract_y
 _atom_site_fract_z
 _atom_site_occupancy
  As  As0  1  0.25000000  0.75000000  0.50000000  1
  As  As1  1  0.75000000  0.25000000  0.50000000  1
  Cr  Cr2  1  0.25713137  0.24286863  0.50000000  1
  Cr  Cr3  1  0.74286863  0.75713137  0.50000000  1
  Cr  Cr4  1  0.75713137  0.25713137  0.01426273  1
  Cr  Cr5  1  0.24286863  0.74286863  0.98573727  1
  Cr  Cr6  1  0.75000000  0.75000000  0.00000000  1
  Cr  Cr7  1  0.25000000  0.25000000  -0.00000000  1
  N  N8  1  0.00000000  0.00000000  -0.00000000  1
  N  N9  1  0.50000000  0.50000000  0.00000000  1
