# generated using pymatgen
data_BaAsO3
_symmetry_space_group_name_H-M   'P 1'
_cell_length_a   5.71296871
_cell_length_b   5.71296871
_cell_length_c   5.71296875
_cell_angle_alpha   60.02852331
_cell_angle_beta   60.02852331
_cell_angle_gamma   60.02852223
_symmetry_Int_Tables_number   1
_chemical_formula_structural   BaAsO3
_chemical_formula_sum   'Ba2 As2 O6'
_cell_volume   131.93233618
_cell_formula_units_Z   2
loop_
 _symmetry_equiv_pos_site_id
 _symmetry_equiv_pos_as_xyz
  1  'x, y, z'
loop_
 _atom_site_type_symbol
 _atom_site_label
 _atom_site_symmetry_multiplicity
 _atom_site_fract_x
 _atom_site_fract_y
 _atom_site_fract_z
 _atom_site_occupancy
  As  As0  1  0.00000000  0.00000000  0.00000000  1
  As  As1  1  0.49999996  0.49999996  0.49999996  1
  Ba  Ba2  1  0.24999998  0.24999998  0.24999998  1
  Ba  Ba3  1  0.74999995  0.74999995  0.74999995  1
  O  O4  1  0.74999958  0.25115010  0.24885095  1
  O  O5  1  0.74885061  0.75114965  0.25000104  1
  O  O6  1  0.24885102  0.74999953  0.25115007  1
  O  O7  1  0.75114963  0.25000111  0.74885057  1
  O  O8  1  0.25114902  0.24884998  0.75000162  1
  O  O9  1  0.25000107  0.74885054  0.75114970  1
