# generated using pymatgen
data_LuBeO3
_symmetry_space_group_name_H-M   'P 1'
_cell_length_a   4.85213618
_cell_length_b   5.33566938
_cell_length_c   6.88849565
_cell_angle_alpha   90.00000000
_cell_angle_beta   90.00000000
_cell_angle_gamma   90.00000000
_symmetry_Int_Tables_number   1
_chemical_formula_structural   LuBeO3
_chemical_formula_sum   'Lu4 Be4 O12'
_cell_volume   178.33898096
_cell_formula_units_Z   4
loop_
 _symmetry_equiv_pos_site_id
 _symmetry_equiv_pos_as_xyz
  1  'x, y, z'
loop_
 _atom_site_type_symbol
 _atom_site_label
 _atom_site_symmetry_multiplicity
 _atom_site_fract_x
 _atom_site_fract_y
 _atom_site_fract_z
 _atom_site_occupancy
  Be  Be0  1  0.50000039  0.00000000  0.00000000  1
  Be  Be1  1  0.00000000  0.49999912  0.00000000  1
  Be  Be2  1  0.50000039  0.00000000  0.50000032  1
  Be  Be3  1  0.00000000  0.49999912  0.50000032  1
  Lu  Lu4  1  0.97400811  0.08005556  0.25000088  1
  Lu  Lu5  1  0.52599307  0.58005468  0.25000088  1
  Lu  Lu6  1  0.47400772  0.41994544  0.75000120  1
  Lu  Lu7  1  0.02599268  0.91994456  0.75000120  1
  O  O8  1  0.68093307  0.28732665  0.04149382  1
  O  O9  1  0.81906811  0.78732577  0.04149382  1
  O  O10  1  0.07823358  0.48537303  0.25000088  1
  O  O11  1  0.42176475  0.98537215  0.25000088  1
  O  O12  1  0.68093307  0.28732665  0.45850504  1
  O  O13  1  0.81906811  0.78732577  0.45850504  1
  O  O14  1  0.18093268  0.21267247  0.54149414  1
  O  O15  1  0.31906771  0.71267347  0.54149414  1
  O  O16  1  0.57823398  0.01462797  0.75000120  1
  O  O17  1  0.92176514  0.51462709  0.75000120  1
  O  O18  1  0.18093268  0.21267247  0.95850536  1
  O  O19  1  0.31906771  0.71267347  0.95850536  1
