# generated using pymatgen
data_PmPtO3
_symmetry_space_group_name_H-M   'P 1'
_cell_length_a   5.52950807
_cell_length_b   6.10202424
_cell_length_c   7.51283328
_cell_angle_alpha   90.00000000
_cell_angle_beta   90.00000000
_cell_angle_gamma   90.00000000
_symmetry_Int_Tables_number   1
_chemical_formula_structural   PmPtO3
_chemical_formula_sum   'Pm4 Pt4 O12'
_cell_volume   253.49195203
_cell_formula_units_Z   4
loop_
 _symmetry_equiv_pos_site_id
 _symmetry_equiv_pos_as_xyz
  1  'x, y, z'
loop_
 _atom_site_type_symbol
 _atom_site_label
 _atom_site_symmetry_multiplicity
 _atom_site_fract_x
 _atom_site_fract_y
 _atom_site_fract_z
 _atom_site_occupancy
  O  O0  1  0.67867882  0.31110660  0.05351110  1
  O  O1  1  0.82132080  0.81110625  0.05351110  1
  O  O2  1  0.13742452  0.44632238  0.25000022  1
  O  O3  1  0.36257475  0.94632204  0.25000022  1
  O  O4  1  0.67867882  0.31110660  0.44648801  1
  O  O5  1  0.82132080  0.81110625  0.44648801  1
  O  O6  1  0.17867955  0.18889305  0.55351155  1
  O  O7  1  0.32132153  0.68889271  0.55351155  1
  O  O8  1  0.63742379  0.05367727  0.74999934  1
  O  O9  1  0.86257583  0.55367692  0.74999934  1
  O  O10  1  0.17867955  0.18889305  0.94648846  1
  O  O11  1  0.32132153  0.68889271  0.94648846  1
  Pm  Pm12  1  0.96826516  0.08619271  0.25000022  1
  Pm  Pm13  1  0.53173446  0.58619236  0.25000022  1
  Pm  Pm14  1  0.46826408  0.41380694  0.74999934  1
  Pm  Pm15  1  0.03173519  0.91380660  0.74999934  1
  Pt  Pt16  1  0.49999927  0.00000000  0.00000000  1
  Pt  Pt17  1  0.00000000  0.49999965  0.00000000  1
  Pt  Pt18  1  0.49999927  0.00000000  0.50000045  1
  Pt  Pt19  1  0.00000000  0.49999965  0.50000045  1
