# generated using pymatgen
data_HoAlO3
_symmetry_space_group_name_H-M   'P 1'
_cell_length_a   3.66466601
_cell_length_b   3.66466601
_cell_length_c   3.77966378
_cell_angle_alpha   90.00000000
_cell_angle_beta   90.00000000
_cell_angle_gamma   90.00000000
_symmetry_Int_Tables_number   1
_chemical_formula_structural   HoAlO3
_chemical_formula_sum   'Ho1 Al1 O3'
_cell_volume   50.76004154
_cell_formula_units_Z   1
loop_
 _symmetry_equiv_pos_site_id
 _symmetry_equiv_pos_as_xyz
  1  'x, y, z'
loop_
 _atom_site_type_symbol
 _atom_site_label
 _atom_site_symmetry_multiplicity
 _atom_site_fract_x
 _atom_site_fract_y
 _atom_site_fract_z
 _atom_site_occupancy
  Al  Al0  1  0.50000191  0.50000191  0.18491592  1
  Ho  Ho1  1  0.00000000  0.00000000  0.74968044  1
  O  O2  1  0.50000191  0.00000000  0.14850792  1
  O  O3  1  0.00000000  0.50000191  0.14850792  1
  O  O4  1  0.50000191  0.50000191  0.66839014  1
