# generated using pymatgen
data_HfInO3
_symmetry_space_group_name_H-M   'P 1'
_cell_length_a   5.60986817
_cell_length_b   5.74799549
_cell_length_c   8.01557618
_cell_angle_alpha   90.00000000
_cell_angle_beta   90.00000000
_cell_angle_gamma   90.00000000
_symmetry_Int_Tables_number   1
_chemical_formula_structural   HfInO3
_chemical_formula_sum   'Hf4 In4 O12'
_cell_volume   258.46623733
_cell_formula_units_Z   4
loop_
 _symmetry_equiv_pos_site_id
 _symmetry_equiv_pos_as_xyz
  1  'x, y, z'
loop_
 _atom_site_type_symbol
 _atom_site_label
 _atom_site_symmetry_multiplicity
 _atom_site_fract_x
 _atom_site_fract_y
 _atom_site_fract_z
 _atom_site_occupancy
  Hf  Hf0  1  0.49999927  0.00000000  0.00000000  1
  Hf  Hf1  1  0.00000000  0.50000039  0.00000000  1
  Hf  Hf2  1  0.49999927  0.00000000  0.50000024  1
  Hf  Hf3  1  0.00000000  0.50000039  0.50000024  1
  In  In4  1  0.99226574  0.02946940  0.24999950  1
  In  In5  1  0.50773386  0.52946980  0.24999950  1
  In  In6  1  0.49226647  0.47052925  0.74999973  1
  In  In7  1  0.00773458  0.97052964  0.74999973  1
  O  O8  1  0.69556536  0.30117978  0.04821363  1
  O  O9  1  0.80443423  0.80117843  0.04821363  1
  O  O10  1  0.10156210  0.48373559  0.24999950  1
  O  O11  1  0.39843717  0.98373598  0.24999950  1
  O  O12  1  0.69556536  0.30117978  0.45178661  1
  O  O13  1  0.80443423  0.80117843  0.45178661  1
  O  O14  1  0.19556609  0.19882062  0.54821387  1
  O  O15  1  0.30443318  0.69882101  0.54821387  1
  O  O16  1  0.60156316  0.01626306  0.74999973  1
  O  O17  1  0.89843644  0.51626345  0.74999973  1
  O  O18  1  0.19556609  0.19882062  0.95178685  1
  O  O19  1  0.30443318  0.69882101  0.95178685  1
