# generated using pymatgen
data_UAgO3
_symmetry_space_group_name_H-M   'P 1'
_cell_length_a   4.30808082
_cell_length_b   4.30808082
_cell_length_c   4.29702533
_cell_angle_alpha   90.00000000
_cell_angle_beta   90.00000000
_cell_angle_gamma   90.00000000
_symmetry_Int_Tables_number   1
_chemical_formula_structural   UAgO3
_chemical_formula_sum   'U1 Ag1 O3'
_cell_volume   79.75090089
_cell_formula_units_Z   1
loop_
 _symmetry_equiv_pos_site_id
 _symmetry_equiv_pos_as_xyz
  1  'x, y, z'
loop_
 _atom_site_type_symbol
 _atom_site_label
 _atom_site_symmetry_multiplicity
 _atom_site_fract_x
 _atom_site_fract_y
 _atom_site_fract_z
 _atom_site_occupancy
  Ag  Ag0  1  0.00000000  0.00000000  0.35498511  1
  O  O1  1  0.49999991  0.49999991  0.27049875  1
  O  O2  1  0.49999991  0.00000000  0.75092645  1
  O  O3  1  0.00000000  0.49999991  0.75092645  1
  U  U4  1  0.49999991  0.49999991  0.77265544  1
