# generated using pymatgen
data_UAgO3
_symmetry_space_group_name_H-M   'P 1'
_cell_length_a   5.75852753
_cell_length_b   5.98244554
_cell_length_c   8.36534890
_cell_angle_alpha   90.00000000
_cell_angle_beta   90.00000000
_cell_angle_gamma   90.00000000
_symmetry_Int_Tables_number   1
_chemical_formula_structural   UAgO3
_chemical_formula_sum   'U4 Ag4 O12'
_cell_volume   288.18691657
_cell_formula_units_Z   4
loop_
 _symmetry_equiv_pos_site_id
 _symmetry_equiv_pos_as_xyz
  1  'x, y, z'
loop_
 _atom_site_type_symbol
 _atom_site_label
 _atom_site_symmetry_multiplicity
 _atom_site_fract_x
 _atom_site_fract_y
 _atom_site_fract_z
 _atom_site_occupancy
  Ag  Ag0  1  0.98845407  0.04017253  0.25000033  1
  Ag  Ag1  1  0.51154570  0.54017207  0.25000033  1
  Ag  Ag2  1  0.48845299  0.45982700  0.75000100  1
  Ag  Ag3  1  0.01154635  0.95982654  0.75000100  1
  O  O4  1  0.69209706  0.30176455  0.05545734  1
  O  O5  1  0.80790271  0.80176576  0.05545734  1
  O  O6  1  0.10477505  0.46429507  0.25000033  1
  O  O7  1  0.39522256  0.96429461  0.25000033  1
  O  O8  1  0.69209706  0.30176455  0.44454452  1
  O  O9  1  0.80790271  0.80176576  0.44454452  1
  O  O10  1  0.19209772  0.19823498  0.55545561  1
  O  O11  1  0.30790163  0.69823452  0.55545561  1
  O  O12  1  0.60477787  0.03570279  0.75000100  1
  O  O13  1  0.89522191  0.53570400  0.75000100  1
  O  O14  1  0.19209772  0.19823498  0.94454399  1
  O  O15  1  0.30790163  0.69823452  0.94454399  1
  U  U16  1  0.49999761  0.00000000  0.00000000  1
  U  U17  1  0.00000000  0.49999954  0.00000000  1
  U  U18  1  0.49999761  0.00000000  0.49999947  1
  U  U19  1  0.00000000  0.49999954  0.49999947  1
