# generated using pymatgen
data_NaAcO3
_symmetry_space_group_name_H-M   'P 1'
_cell_length_a   6.06336304
_cell_length_b   6.22810833
_cell_length_c   8.57504413
_cell_angle_alpha   90.00000000
_cell_angle_beta   90.00000000
_cell_angle_gamma   90.00000000
_symmetry_Int_Tables_number   1
_chemical_formula_structural   NaAcO3
_chemical_formula_sum   'Na4 Ac4 O12'
_cell_volume   323.82180839
_cell_formula_units_Z   4
loop_
 _symmetry_equiv_pos_site_id
 _symmetry_equiv_pos_as_xyz
  1  'x, y, z'
loop_
 _atom_site_type_symbol
 _atom_site_label
 _atom_site_symmetry_multiplicity
 _atom_site_fract_x
 _atom_site_fract_y
 _atom_site_fract_z
 _atom_site_occupancy
  Ac  Ac0  1  0.49999975  0.00000000  0.00000000  1
  Ac  Ac1  1  0.00000000  0.49999933  0.00000000  1
  Ac  Ac2  1  0.49999975  0.00000000  0.49999976  1
  Ac  Ac3  1  0.00000000  0.49999933  0.49999976  1
  Na  Na4  1  0.99824305  0.03974722  0.24999988  1
  Na  Na5  1  0.50175620  0.53974655  0.24999988  1
  Na  Na6  1  0.49824330  0.46025372  0.74999964  1
  Na  Na7  1  0.00175480  0.96025305  0.74999964  1
  O  O8  1  0.67829354  0.30926084  0.06678450  1
  O  O9  1  0.82170570  0.80926017  0.06678450  1
  O  O10  1  0.13702132  0.40420299  0.24999988  1
  O  O11  1  0.36297843  0.90420232  0.24999988  1
  O  O12  1  0.67829354  0.30926084  0.43321526  1
  O  O13  1  0.82170570  0.80926017  0.43321526  1
  O  O14  1  0.17829214  0.19074010  0.56678426  1
  O  O15  1  0.32170596  0.69073943  0.56678426  1
  O  O16  1  0.63702107  0.09579634  0.74999964  1
  O  O17  1  0.86297818  0.59579728  0.74999964  1
  O  O18  1  0.17829214  0.19074010  0.93321502  1
  O  O19  1  0.32170596  0.69073943  0.93321502  1
