# generated using pymatgen
data_AcRuO3
_symmetry_space_group_name_H-M   'P 1'
_cell_length_a   5.61861907
_cell_length_b   5.83519262
_cell_length_c   8.02871270
_cell_angle_alpha   90.00000000
_cell_angle_beta   90.00000000
_cell_angle_gamma   90.00000000
_symmetry_Int_Tables_number   1
_chemical_formula_structural   AcRuO3
_chemical_formula_sum   'Ac4 Ru4 O12'
_cell_volume   263.22716305
_cell_formula_units_Z   4
loop_
 _symmetry_equiv_pos_site_id
 _symmetry_equiv_pos_as_xyz
  1  'x, y, z'
loop_
 _atom_site_type_symbol
 _atom_site_label
 _atom_site_symmetry_multiplicity
 _atom_site_fract_x
 _atom_site_fract_y
 _atom_site_fract_z
 _atom_site_occupancy
  Ac  Ac0  1  0.98920748  0.05148073  0.25000023  1
  Ac  Ac1  1  0.51079277  0.55148137  0.25000023  1
  Ac  Ac2  1  0.48920917  0.44851818  0.74999944  1
  Ac  Ac3  1  0.01079091  0.94852053  0.74999944  1
  O  O4  1  0.70128976  0.29455240  0.04087579  1
  O  O5  1  0.79871049  0.79455303  0.04087579  1
  O  O6  1  0.07727344  0.48353845  0.25000023  1
  O  O7  1  0.42272665  0.98353908  0.25000023  1
  O  O8  1  0.70128976  0.29455240  0.45912591  1
  O  O9  1  0.79871049  0.79455303  0.45912591  1
  O  O10  1  0.20128967  0.20544823  0.54087500  1
  O  O11  1  0.29871041  0.70544715  0.54087500  1
  O  O12  1  0.57727174  0.01646218  0.74999944  1
  O  O13  1  0.92272673  0.51646281  0.74999944  1
  O  O14  1  0.20128967  0.20544823  0.95912512  1
  O  O15  1  0.29871041  0.70544715  0.95912512  1
  Ru  Ru16  1  0.50000008  0.00000000  0.00000000  1
  Ru  Ru17  1  0.00000000  0.49999892  0.00000000  1
  Ru  Ru18  1  0.50000008  0.00000000  0.49999921  1
  Ru  Ru19  1  0.00000000  0.49999892  0.49999921  1
