# generated using pymatgen
data_HfBiO3
_symmetry_space_group_name_H-M   'P 1'
_cell_length_a   7.36347000
_cell_length_b   5.23147200
_cell_length_c   5.20186700
_cell_angle_alpha   90.00000000
_cell_angle_beta   90.00000000
_cell_angle_gamma   90.00000000
_symmetry_Int_Tables_number   1
_chemical_formula_structural   HfBiO3
_chemical_formula_sum   'Hf4 Bi4 O12'
_cell_volume   200.38521324
_cell_formula_units_Z   4
loop_
 _symmetry_equiv_pos_site_id
 _symmetry_equiv_pos_as_xyz
  1  'x, y, z'
loop_
 _atom_site_type_symbol
 _atom_site_label
 _atom_site_symmetry_multiplicity
 _atom_site_fract_x
 _atom_site_fract_y
 _atom_site_fract_z
 _atom_site_occupancy
  Bi  Bi0  1  0.50000000  0.27597760  0.00597767  1
  Bi  Bi1  1  0.50000000  0.77597689  0.49402225  1
  Bi  Bi2  1  0.00000000  0.72402240  0.50597767  1
  Bi  Bi3  1  0.00000000  0.22402311  0.99402225  1
  Hf  Hf4  1  0.74999978  0.74999980  0.00000000  1
  Hf  Hf5  1  0.25000022  0.74999980  0.00000000  1
  Hf  Hf6  1  0.75000022  0.25000020  0.50000000  1
  Hf  Hf7  1  0.24999978  0.25000020  0.50000000  1
  O  O8  1  0.00000000  0.76498200  0.06892029  1
  O  O9  1  0.71398510  0.03097477  0.21898887  1
  O  O10  1  0.28601490  0.03097477  0.21898887  1
  O  O11  1  0.71398510  0.53097547  0.28101105  1
  O  O12  1  0.28601490  0.53097547  0.28101105  1
  O  O13  1  0.00000000  0.26498271  0.43108136  1
  O  O14  1  0.50000000  0.23501800  0.56892029  1
  O  O15  1  0.21398510  0.96902523  0.71898887  1
  O  O16  1  0.78601490  0.96902523  0.71898887  1
  O  O17  1  0.21398510  0.46902453  0.78101105  1
  O  O18  1  0.78601490  0.46902453  0.78101105  1
  O  O19  1  0.50000000  0.73501729  0.93108136  1
