# generated using pymatgen
data_CdWO3
_symmetry_space_group_name_H-M   'P 1'
_cell_length_a   5.59662211
_cell_length_b   5.47163939
_cell_length_c   7.78166511
_cell_angle_alpha   90.00000000
_cell_angle_beta   90.00000000
_cell_angle_gamma   90.00000000
_symmetry_Int_Tables_number   1
_chemical_formula_structural   CdWO3
_chemical_formula_sum   'Cd4 W4 O12'
_cell_volume   238.29558046
_cell_formula_units_Z   4
loop_
 _symmetry_equiv_pos_site_id
 _symmetry_equiv_pos_as_xyz
  1  'x, y, z'
loop_
 _atom_site_type_symbol
 _atom_site_label
 _atom_site_symmetry_multiplicity
 _atom_site_fract_x
 _atom_site_fract_y
 _atom_site_fract_z
 _atom_site_occupancy
  Cd  Cd0  1  0.99561305  0.01726356  0.25000048  1
  Cd  Cd1  1  0.50438639  0.51726179  0.25000048  1
  Cd  Cd2  1  0.49561324  0.48273649  0.75000015  1
  Cd  Cd3  1  0.00438657  0.98273837  0.75000015  1
  O  O4  1  0.72588964  0.27552620  0.04268495  1
  O  O5  1  0.77410980  0.77552625  0.04268495  1
  O  O6  1  0.41624215  0.00041304  0.25000048  1
  O  O7  1  0.08375767  0.50041127  0.25000048  1
  O  O8  1  0.72588964  0.27552620  0.45731601  1
  O  O9  1  0.77410980  0.77552625  0.45731601  1
  O  O10  1  0.22588983  0.22447203  0.54268462  1
  O  O11  1  0.27410998  0.72447209  0.54268462  1
  O  O12  1  0.91624196  0.49958702  0.75000015  1
  O  O13  1  0.58375748  0.99958696  0.75000015  1
  O  O14  1  0.22588983  0.22447203  0.95731439  1
  O  O15  1  0.27410998  0.72447209  0.95731439  1
  W  W16  1  0.49999981  0.00000000  0.00000000  1
  W  W17  1  0.00000000  0.50000006  0.00000000  1
  W  W18  1  0.49999981  0.00000000  0.50000096  1
  W  W19  1  0.00000000  0.50000006  0.50000096  1
