# generated using pymatgen
data_KAgF3
_symmetry_space_group_name_H-M   'P 1'
_cell_length_a   6.20376200
_cell_length_b   6.49642900
_cell_length_c   8.43885900
_cell_angle_alpha   90.00000000
_cell_angle_beta   90.00000000
_cell_angle_gamma   90.00000000
_symmetry_Int_Tables_number   1
_chemical_formula_structural   KAgF3
_chemical_formula_sum   'K4 Ag4 F12'
_cell_volume   340.10542172
_cell_formula_units_Z   4
loop_
 _symmetry_equiv_pos_site_id
 _symmetry_equiv_pos_as_xyz
  1  'x, y, z'
loop_
 _atom_site_type_symbol
 _atom_site_label
 _atom_site_symmetry_multiplicity
 _atom_site_fract_x
 _atom_site_fract_y
 _atom_site_fract_z
 _atom_site_occupancy
  Ag  Ag0  1  0.00000000  0.00000000  0.00000000  1
  Ag  Ag1  1  0.50000000  0.50000000  0.00000000  1
  Ag  Ag2  1  0.00000000  0.00000000  0.50000000  1
  Ag  Ag3  1  0.50000000  0.50000000  0.50000000  1
  F  F4  1  0.41064074  0.47251908  0.75000000  1
  F  F5  1  0.91064074  0.02748092  0.25000000  1
  F  F6  1  0.58935926  0.52748092  0.25000000  1
  F  F7  1  0.08935926  0.97251908  0.75000000  1
  F  F8  1  0.77283014  0.31773213  0.54031280  1
  F  F9  1  0.27283014  0.18226787  0.45968720  1
  F  F10  1  0.22716986  0.68226787  0.04031280  1
  F  F11  1  0.72716986  0.81773213  0.95968720  1
  F  F12  1  0.22716986  0.68226787  0.45968720  1
  F  F13  1  0.72716986  0.81773213  0.54031280  1
  F  F14  1  0.77283014  0.31773213  0.95968720  1
  F  F15  1  0.27283014  0.18226787  0.04031280  1
  K  K16  1  0.50987649  0.05484680  0.75000000  1
  K  K17  1  0.00987649  0.44515320  0.25000000  1
  K  K18  1  0.49012351  0.94515320  0.25000000  1
  K  K19  1  0.99012351  0.55484680  0.75000000  1
