# generated using pymatgen
data_NaMnCl3
_symmetry_space_group_name_H-M   'P 1'
_cell_length_a   6.17792300
_cell_length_b   8.85579900
_cell_length_c   6.29062800
_cell_angle_alpha   90.00000000
_cell_angle_beta   90.00000000
_cell_angle_gamma   90.00000000
_symmetry_Int_Tables_number   1
_chemical_formula_structural   NaMnCl3
_chemical_formula_sum   'Na4 Mn4 Cl12'
_cell_volume   344.16305297
_cell_formula_units_Z   4
loop_
 _symmetry_equiv_pos_site_id
 _symmetry_equiv_pos_as_xyz
  1  'x, y, z'
loop_
 _atom_site_type_symbol
 _atom_site_label
 _atom_site_symmetry_multiplicity
 _atom_site_fract_x
 _atom_site_fract_y
 _atom_site_fract_z
 _atom_site_occupancy
  Cl  Cl0  1  0.06271964  0.50000000  0.49456406  1
  Cl  Cl1  1  0.20556413  0.21818164  0.20632055  1
  Cl  Cl2  1  0.20556413  0.78181836  0.20632055  1
  Cl  Cl3  1  0.29443682  0.21818164  0.70632104  1
  Cl  Cl4  1  0.29443682  0.78181836  0.70632104  1
  Cl  Cl5  1  0.43727988  0.50000000  0.99456498  1
  Cl  Cl6  1  0.56271916  0.00000000  0.00543502  1
  Cl  Cl7  1  0.70556365  0.71818175  0.29367993  1
  Cl  Cl8  1  0.70556365  0.28181825  0.29367993  1
  Cl  Cl9  1  0.79443634  0.71818175  0.79367901  1
  Cl  Cl10  1  0.79443634  0.28181825  0.79367901  1
  Cl  Cl11  1  0.93728083  0.00000000  0.50543551  1
  Mn  Mn12  1  0.00000000  0.75000006  0.50000049  1
  Mn  Mn13  1  0.00000000  0.24999994  0.50000049  1
  Mn  Mn14  1  0.49999952  0.75000006  0.00000000  1
  Mn  Mn15  1  0.49999952  0.24999994  0.00000000  1
  Na  Na16  1  0.01315622  0.00000000  0.94925816  1
  Na  Na17  1  0.48684474  0.00000000  0.44925908  1
  Na  Na18  1  0.51315574  0.50000000  0.55074189  1
  Na  Na19  1  0.98684426  0.50000000  0.05074141  1
