# generated using pymatgen
data_BaRuS3
_symmetry_space_group_name_H-M   'P 1'
_cell_length_a   6.79700541
_cell_length_b   6.79700541
_cell_length_c   6.79700561
_cell_angle_alpha   120.00000098
_cell_angle_beta   120.00000098
_cell_angle_gamma   60.00000195
_symmetry_Int_Tables_number   1
_chemical_formula_structural   BaRuS3
_chemical_formula_sum   'Ba2 Ru2 S6'
_cell_volume   222.04339665
_cell_formula_units_Z   2
loop_
 _symmetry_equiv_pos_site_id
 _symmetry_equiv_pos_as_xyz
  1  'x, y, z'
loop_
 _atom_site_type_symbol
 _atom_site_label
 _atom_site_symmetry_multiplicity
 _atom_site_fract_x
 _atom_site_fract_y
 _atom_site_fract_z
 _atom_site_occupancy
  Ba  Ba0  1  0.75000185  0.74999811  0.25000106  1
  Ba  Ba1  1  0.25000189  0.24999815  0.74999894  1
  Ru  Ru2  1  0.00000000  0.00000000  0.00000000  1
  Ru  Ru3  1  0.50000007  0.49999993  0.50000000  1
  S  S4  1  0.74999631  0.25000335  0.25000375  1
  S  S5  1  0.25000456  0.25000422  0.25000416  1
  S  S6  1  0.25000451  0.74999516  0.25000477  1
  S  S7  1  0.25000484  0.74999549  0.74999523  1
  S  S8  1  0.74999578  0.74999544  0.74999584  1
  S  S9  1  0.74999665  0.25000369  0.74999625  1
