# generated using pymatgen
data_ThCrSe3
_symmetry_space_group_name_H-M   'P 1'
_cell_length_a   6.66448900
_cell_length_b   7.98309400
_cell_length_c   9.53688900
_cell_angle_alpha   90.00000000
_cell_angle_beta   90.00000000
_cell_angle_gamma   90.00000000
_symmetry_Int_Tables_number   1
_chemical_formula_structural   ThCrSe3
_chemical_formula_sum   'Th4 Cr4 Se12'
_cell_volume   507.39341481
_cell_formula_units_Z   4
loop_
 _symmetry_equiv_pos_site_id
 _symmetry_equiv_pos_as_xyz
  1  'x, y, z'
loop_
 _atom_site_type_symbol
 _atom_site_label
 _atom_site_symmetry_multiplicity
 _atom_site_fract_x
 _atom_site_fract_y
 _atom_site_fract_z
 _atom_site_occupancy
  Cr  Cr0  1  0.00000000  0.00000000  0.00000000  1
  Cr  Cr1  1  0.50000000  0.50000000  0.00000000  1
  Cr  Cr2  1  0.00000000  0.00000000  0.50000000  1
  Cr  Cr3  1  0.50000000  0.50000000  0.50000000  1
  Se  Se4  1  0.14153227  0.03992229  0.75000000  1
  Se  Se5  1  0.64153227  0.46007771  0.25000000  1
  Se  Se6  1  0.85846773  0.96007771  0.25000000  1
  Se  Se7  1  0.35846773  0.53992229  0.75000000  1
  Se  Se8  1  0.17135748  0.33531891  0.44247237  1
  Se  Se9  1  0.67135748  0.16468109  0.55752763  1
  Se  Se10  1  0.82864252  0.66468109  0.94247237  1
  Se  Se11  1  0.32864252  0.83531891  0.05752763  1
  Se  Se12  1  0.82864252  0.66468109  0.55752763  1
  Se  Se13  1  0.32864252  0.83531891  0.44247237  1
  Se  Se14  1  0.17135748  0.33531891  0.05752763  1
  Se  Se15  1  0.67135748  0.16468109  0.94247237  1
  Th  Th16  1  0.94848839  0.37885319  0.75000000  1
  Th  Th17  1  0.44848839  0.12114681  0.25000000  1
  Th  Th18  1  0.05151161  0.62114681  0.25000000  1
  Th  Th19  1  0.55151161  0.87885319  0.75000000  1
