# generated using pymatgen
data_OsPbO3
_symmetry_space_group_name_H-M   'P 1'
_cell_length_a   5.65859782
_cell_length_b   5.60231180
_cell_length_c   7.90966629
_cell_angle_alpha   90.00000000
_cell_angle_beta   90.00000000
_cell_angle_gamma   90.00000000
_symmetry_Int_Tables_number   1
_chemical_formula_structural   OsPbO3
_chemical_formula_sum   'Os4 Pb4 O12'
_cell_volume   250.74614515
_cell_formula_units_Z   4
loop_
 _symmetry_equiv_pos_site_id
 _symmetry_equiv_pos_as_xyz
  1  'x, y, z'
loop_
 _atom_site_type_symbol
 _atom_site_label
 _atom_site_symmetry_multiplicity
 _atom_site_fract_x
 _atom_site_fract_y
 _atom_site_fract_z
 _atom_site_occupancy
  O  O0  1  0.72215240  0.27835473  0.03785748  1
  O  O1  1  0.77784818  0.77835546  0.03785748  1
  O  O2  1  0.43191619  0.00526925  0.24999917  1
  O  O3  1  0.06808577  0.50526998  0.24999917  1
  O  O4  1  0.72215240  0.27835473  0.46214339  1
  O  O5  1  0.77784818  0.77835546  0.46214339  1
  O  O6  1  0.22215221  0.22164421  0.53785708  1
  O  O7  1  0.27784798  0.72164495  0.53785708  1
  O  O8  1  0.93191638  0.49472969  0.75000004  1
  O  O9  1  0.56808596  0.99473042  0.75000004  1
  O  O10  1  0.22215221  0.22164421  0.96214299  1
  O  O11  1  0.27784798  0.72164495  0.96214299  1
  Os  Os12  1  0.50000019  0.00000000  0.00000000  1
  Os  Os13  1  0.00000000  0.50000073  0.00000000  1
  Os  Os14  1  0.50000019  0.00000000  0.49999960  1
  Os  Os15  1  0.00000000  0.50000073  0.49999960  1
  Pb  Pb16  1  0.99470225  0.01710365  0.24999917  1
  Pb  Pb17  1  0.50529656  0.51710260  0.24999917  1
  Pb  Pb18  1  0.49470206  0.48289708  0.75000004  1
  Pb  Pb19  1  0.00529813  0.98289602  0.75000004  1
