# generated using pymatgen
data_OsPbO3
_symmetry_space_group_name_H-M   'P 1'
_cell_length_a   3.98485482
_cell_length_b   3.98485482
_cell_length_c   3.98552856
_cell_angle_alpha   90.00000000
_cell_angle_beta   90.00000000
_cell_angle_gamma   90.00000000
_symmetry_Int_Tables_number   1
_chemical_formula_structural   OsPbO3
_chemical_formula_sum   'Os1 Pb1 O3'
_cell_volume   63.28647896
_cell_formula_units_Z   1
loop_
 _symmetry_equiv_pos_site_id
 _symmetry_equiv_pos_as_xyz
  1  'x, y, z'
loop_
 _atom_site_type_symbol
 _atom_site_label
 _atom_site_symmetry_multiplicity
 _atom_site_fract_x
 _atom_site_fract_y
 _atom_site_fract_z
 _atom_site_occupancy
  O  O0  1  0.50000065  0.50000065  0.07861191  1
  O  O1  1  0.50000065  0.00000000  0.59968207  1
  O  O2  1  0.00000000  0.50000065  0.59968207  1
  Os  Os3  1  0.50000065  0.50000065  0.57508056  1
  Pb  Pb4  1  0.00000000  0.00000000  0.04694233  1
