# generated using pymatgen
data_ZnSeO3
_symmetry_space_group_name_H-M   'P 1'
_cell_length_a   5.06531300
_cell_length_b   5.90089500
_cell_length_c   7.67922500
_cell_angle_alpha   90.00000000
_cell_angle_beta   90.00000000
_cell_angle_gamma   90.00000000
_symmetry_Int_Tables_number   1
_chemical_formula_structural   ZnSeO3
_chemical_formula_sum   'Zn4 Se4 O12'
_cell_volume   229.53111493
_cell_formula_units_Z   4
loop_
 _symmetry_equiv_pos_site_id
 _symmetry_equiv_pos_as_xyz
  1  'x, y, z'
loop_
 _atom_site_type_symbol
 _atom_site_label
 _atom_site_symmetry_multiplicity
 _atom_site_fract_x
 _atom_site_fract_y
 _atom_site_fract_z
 _atom_site_occupancy
  O  O0  1  0.67453685  0.07281042  0.75000000  1
  O  O1  1  0.17453685  0.42718958  0.25000000  1
  O  O2  1  0.32546315  0.92718958  0.25000000  1
  O  O3  1  0.82546315  0.57281042  0.75000000  1
  O  O4  1  0.13616652  0.19032090  0.92410223  1
  O  O5  1  0.63616652  0.30967910  0.07589777  1
  O  O6  1  0.86383348  0.80967910  0.42410223  1
  O  O7  1  0.36383348  0.69032090  0.57589777  1
  O  O8  1  0.86383348  0.80967910  0.07589777  1
  O  O9  1  0.36383348  0.69032090  0.92410223  1
  O  O10  1  0.13616652  0.19032090  0.57589777  1
  O  O11  1  0.63616652  0.30967910  0.42410223  1
  Se  Se12  1  0.01573265  0.02550480  0.75000000  1
  Se  Se13  1  0.51573265  0.47449520  0.25000000  1
  Se  Se14  1  0.98426735  0.97449520  0.25000000  1
  Se  Se15  1  0.48426735  0.52550480  0.75000000  1
  Zn  Zn16  1  0.50000000  0.00000000  0.00000000  1
  Zn  Zn17  1  0.00000000  0.50000000  0.00000000  1
  Zn  Zn18  1  0.50000000  0.00000000  0.50000000  1
  Zn  Zn19  1  0.00000000  0.50000000  0.50000000  1
