# generated using pymatgen
data_TbScS3
_symmetry_space_group_name_H-M   'P 1'
_cell_length_a   6.44640200
_cell_length_b   7.07163700
_cell_length_c   9.63382700
_cell_angle_alpha   90.00000000
_cell_angle_beta   90.00000000
_cell_angle_gamma   90.00000000
_symmetry_Int_Tables_number   1
_chemical_formula_structural   TbScS3
_chemical_formula_sum   'Tb4 Sc4 S12'
_cell_volume   439.17356146
_cell_formula_units_Z   4
loop_
 _symmetry_equiv_pos_site_id
 _symmetry_equiv_pos_as_xyz
  1  'x, y, z'
loop_
 _atom_site_type_symbol
 _atom_site_label
 _atom_site_symmetry_multiplicity
 _atom_site_fract_x
 _atom_site_fract_y
 _atom_site_fract_z
 _atom_site_occupancy
  S  S0  1  0.32329508  0.31526989  0.81339801  1
  S  S1  1  0.67670492  0.68473011  0.31339801  1
  S  S2  1  0.17670492  0.81526989  0.81339801  1
  S  S3  1  0.82329508  0.18473011  0.31339801  1
  S  S4  1  0.32321241  0.31526004  0.16859920  1
  S  S5  1  0.67678759  0.68473996  0.66859920  1
  S  S6  1  0.17678759  0.81526004  0.16859920  1
  S  S7  1  0.82321241  0.18473996  0.66859920  1
  S  S8  1  0.35322806  0.05065461  0.49099880  1
  S  S9  1  0.64677194  0.94934539  0.99099880  1
  S  S10  1  0.14677194  0.55065461  0.49099880  1
  S  S11  1  0.85322806  0.44934539  0.99099880  1
  Sc  Sc12  1  0.50002006  0.00004164  0.24099603  1
  Sc  Sc13  1  0.49997994  0.99995836  0.74099603  1
  Sc  Sc14  1  0.99997994  0.50004164  0.24099603  1
  Sc  Sc15  1  0.00002006  0.49995836  0.74099603  1
  Tb  Tb16  1  0.04138947  0.09990158  0.99100797  1
  Tb  Tb17  1  0.95861053  0.90009842  0.49100797  1
  Tb  Tb18  1  0.45861053  0.59990158  0.99100797  1
  Tb  Tb19  1  0.54138947  0.40009842  0.49100797  1
