# generated using pymatgen
data_PrTmO3
_symmetry_space_group_name_H-M   'P 1'
_cell_length_a   5.76284203
_cell_length_b   6.00536657
_cell_length_c   8.34863056
_cell_angle_alpha   90.00000000
_cell_angle_beta   90.00000000
_cell_angle_gamma   90.00000000
_symmetry_Int_Tables_number   1
_chemical_formula_structural   PrTmO3
_chemical_formula_sum   'Pr4 Tm4 O12'
_cell_volume   288.92923030
_cell_formula_units_Z   4
loop_
 _symmetry_equiv_pos_site_id
 _symmetry_equiv_pos_as_xyz
  1  'x, y, z'
loop_
 _atom_site_type_symbol
 _atom_site_label
 _atom_site_symmetry_multiplicity
 _atom_site_fract_x
 _atom_site_fract_y
 _atom_site_fract_z
 _atom_site_occupancy
  O  O0  1  0.69217410  0.30518204  0.06775602  1
  O  O1  1  0.80782537  0.80518149  0.06775602  1
  O  O2  1  0.12848869  0.44172657  0.25000028  1
  O  O3  1  0.37151287  0.94172603  0.25000028  1
  O  O4  1  0.69217410  0.30518204  0.43224335  1
  O  O5  1  0.80782537  0.80518149  0.43224335  1
  O  O6  1  0.19217428  0.19481742  0.56775659  1
  O  O7  1  0.30782555  0.69481687  0.56775659  1
  O  O8  1  0.62848851  0.05827288  0.74999965  1
  O  O9  1  0.87151270  0.55827233  0.74999965  1
  O  O10  1  0.19217428  0.19481742  0.93224391  1
  O  O11  1  0.30782555  0.69481687  0.93224391  1
  Pr  Pr12  1  0.98286227  0.05404499  0.25000028  1
  Pr  Pr13  1  0.51713720  0.55404445  0.25000028  1
  Pr  Pr14  1  0.48286245  0.44595612  0.74999965  1
  Pr  Pr15  1  0.01713738  0.94595558  0.74999965  1
  Tm  Tm16  1  0.49999982  0.00000000  0.00000000  1
  Tm  Tm17  1  0.00000000  0.50000112  0.00000000  1
  Tm  Tm18  1  0.49999982  0.00000000  0.49999937  1
  Tm  Tm19  1  0.00000000  0.50000112  0.49999937  1
