# generated using pymatgen
data_NaLuO3
_symmetry_space_group_name_H-M   'P 1'
_cell_length_a   5.85771081
_cell_length_b   5.97140246
_cell_length_c   7.67499393
_cell_angle_alpha   90.00000000
_cell_angle_beta   90.00000000
_cell_angle_gamma   90.00000000
_symmetry_Int_Tables_number   1
_chemical_formula_structural   NaLuO3
_chemical_formula_sum   'Na4 Lu4 O12'
_cell_volume   268.46168430
_cell_formula_units_Z   4
loop_
 _symmetry_equiv_pos_site_id
 _symmetry_equiv_pos_as_xyz
  1  'x, y, z'
loop_
 _atom_site_type_symbol
 _atom_site_label
 _atom_site_symmetry_multiplicity
 _atom_site_fract_x
 _atom_site_fract_y
 _atom_site_fract_z
 _atom_site_occupancy
  Lu  Lu0  1  0.49999908  0.00000000  0.00000000  1
  Lu  Lu1  1  0.00000000  0.49999979  0.00000000  1
  Lu  Lu2  1  0.49999908  0.00000000  0.50000040  1
  Lu  Lu3  1  0.00000000  0.49999979  0.50000040  1
  Na  Na4  1  0.98588513  0.04699064  0.24999889  1
  Na  Na5  1  0.51411381  0.54699043  0.24999889  1
  Na  Na6  1  0.48588606  0.45300916  0.74999929  1
  Na  Na7  1  0.01411473  0.95300895  0.74999929  1
  O  O8  1  0.71432512  0.28217157  0.08065023  1
  O  O9  1  0.78567552  0.78217304  0.08065023  1
  O  O10  1  0.14770617  0.42417506  0.24999889  1
  O  O11  1  0.35229462  0.92417485  0.24999889  1
  O  O12  1  0.71432512  0.28217157  0.41935017  1
  O  O13  1  0.78567552  0.78217304  0.41935017  1
  O  O14  1  0.21432434  0.21782823  0.58064932  1
  O  O15  1  0.28567474  0.71782802  0.58064932  1
  O  O16  1  0.64770524  0.07582641  0.74999929  1
  O  O17  1  0.85229370  0.57582620  0.74999929  1
  O  O18  1  0.21432434  0.21782823  0.91935056  1
  O  O19  1  0.28567474  0.71782802  0.91935056  1
