# generated using pymatgen
data_AcBiO3
_symmetry_space_group_name_H-M   'P 1'
_cell_length_a   6.09025004
_cell_length_b   6.41465842
_cell_length_c   8.79607198
_cell_angle_alpha   90.00000000
_cell_angle_beta   90.00000000
_cell_angle_gamma   90.00000000
_symmetry_Int_Tables_number   1
_chemical_formula_structural   AcBiO3
_chemical_formula_sum   'Ac4 Bi4 O12'
_cell_volume   343.63503298
_cell_formula_units_Z   4
loop_
 _symmetry_equiv_pos_site_id
 _symmetry_equiv_pos_as_xyz
  1  'x, y, z'
loop_
 _atom_site_type_symbol
 _atom_site_label
 _atom_site_symmetry_multiplicity
 _atom_site_fract_x
 _atom_site_fract_y
 _atom_site_fract_z
 _atom_site_occupancy
  Ac  Ac0  1  0.98217478  0.05877164  0.25000023  1
  Ac  Ac1  1  0.51782439  0.55877332  0.25000023  1
  Ac  Ac2  1  0.48217561  0.44122692  0.74999955  1
  Ac  Ac3  1  0.01782521  0.94122705  0.74999955  1
  Bi  Bi4  1  0.50000082  0.00000000  0.00000000  1
  Bi  Bi5  1  0.00000000  0.50000012  0.00000000  1
  Bi  Bi6  1  0.50000082  0.00000000  0.50000046  1
  Bi  Bi7  1  0.00000000  0.50000012  0.50000046  1
  O  O8  1  0.68538401  0.30904685  0.07066109  1
  O  O9  1  0.81461680  0.80904542  0.07066109  1
  O  O10  1  0.14013875  0.43013826  0.25000023  1
  O  O11  1  0.35986043  0.93013838  0.25000023  1
  O  O12  1  0.68538401  0.30904685  0.42933937  1
  O  O13  1  0.81461680  0.80904542  0.42933937  1
  O  O14  1  0.18538484  0.19095327  0.57066154  1
  O  O15  1  0.31461598  0.69095495  0.57066154  1
  O  O16  1  0.64013956  0.06986342  0.74999955  1
  O  O17  1  0.85986125  0.56986199  0.74999955  1
  O  O18  1  0.18538484  0.19095327  0.92933869  1
  O  O19  1  0.31461598  0.69095495  0.92933869  1
