# generated using pymatgen
data_PmSiO3
_symmetry_space_group_name_H-M   'P 1'
_cell_length_a   5.27166013
_cell_length_b   5.27166013
_cell_length_c   5.27166007
_cell_angle_alpha   60.09025604
_cell_angle_beta   60.09025604
_cell_angle_gamma   60.09026915
_symmetry_Int_Tables_number   1
_chemical_formula_structural   PmSiO3
_chemical_formula_sum   'Pm2 Si2 O6'
_cell_volume   103.80410900
_cell_formula_units_Z   2
loop_
 _symmetry_equiv_pos_site_id
 _symmetry_equiv_pos_as_xyz
  1  'x, y, z'
loop_
 _atom_site_type_symbol
 _atom_site_label
 _atom_site_symmetry_multiplicity
 _atom_site_fract_x
 _atom_site_fract_y
 _atom_site_fract_z
 _atom_site_occupancy
  O  O0  1  0.74999859  0.25089000  0.24911083  1
  O  O1  1  0.74910979  0.75089048  0.24999754  1
  O  O2  1  0.24911048  0.74999976  0.25088919  1
  O  O3  1  0.75088871  0.24999943  0.74910966  1
  O  O4  1  0.25089049  0.24910980  0.74999913  1
  O  O5  1  0.25000059  0.74910918  0.75088803  1
  Pm  Pm6  1  0.24999960  0.24999960  0.24999952  1
  Pm  Pm7  1  0.74999958  0.74999958  0.74999933  1
  Si  Si8  1  0.00000000  0.00000000  0.00000000  1
  Si  Si9  1  0.49999998  0.49999998  0.49999981  1
