# generated using pymatgen
data_CsIO3
_symmetry_space_group_name_H-M   'P 1'
_cell_length_a   4.47833575
_cell_length_b   4.47833575
_cell_length_c   4.47833575
_cell_angle_alpha   89.93336413
_cell_angle_beta   89.93336413
_cell_angle_gamma   89.93336413
_symmetry_Int_Tables_number   1
_chemical_formula_structural   CsIO3
_chemical_formula_sum   'Cs1 I1 O3'
_cell_volume   89.81504060
_cell_formula_units_Z   1
loop_
 _symmetry_equiv_pos_site_id
 _symmetry_equiv_pos_as_xyz
  1  'x, y, z'
loop_
 _atom_site_type_symbol
 _atom_site_label
 _atom_site_symmetry_multiplicity
 _atom_site_fract_x
 _atom_site_fract_y
 _atom_site_fract_z
 _atom_site_occupancy
  Cs  Cs0  1  0.51498620  0.51498620  0.51498620  1
  I  I1  1  0.00422932  0.00422932  0.00422932  1
  O  O2  1  0.03823896  0.03823896  0.59600823  1
  O  O3  1  0.03823896  0.59600823  0.03823896  1
  O  O4  1  0.59600823  0.03823896  0.03823896  1
