# generated using pymatgen
data_CsPmO3
_symmetry_space_group_name_H-M   'P 1'
_cell_length_a   6.52801358
_cell_length_b   6.52801358
_cell_length_c   6.52801355
_cell_angle_alpha   60.18222487
_cell_angle_beta   60.18222487
_cell_angle_gamma   60.18221729
_symmetry_Int_Tables_number   1
_chemical_formula_structural   CsPmO3
_chemical_formula_sum   'Cs2 Pm2 O6'
_cell_volume   197.52253388
_cell_formula_units_Z   2
loop_
 _symmetry_equiv_pos_site_id
 _symmetry_equiv_pos_as_xyz
  1  'x, y, z'
loop_
 _atom_site_type_symbol
 _atom_site_label
 _atom_site_symmetry_multiplicity
 _atom_site_fract_x
 _atom_site_fract_y
 _atom_site_fract_z
 _atom_site_occupancy
  Cs  Cs0  1  0.25000051  0.25000051  0.25000058  1
  Cs  Cs1  1  0.75000028  0.75000028  0.75000048  1
  O  O2  1  0.25244647  0.75000033  0.24755399  1
  O  O3  1  0.75244630  0.74755476  0.24999892  1
  O  O4  1  0.74999946  0.24755406  0.25244727  1
  O  O5  1  0.25000071  0.75244611  0.74755315  1
  O  O6  1  0.24755387  0.25244541  0.75000151  1
  O  O7  1  0.74755369  0.24999984  0.75244644  1
  Pm  Pm8  1  0.00000000  0.00000000  0.00000000  1
  Pm  Pm9  1  0.49999977  0.49999977  0.49999990  1
