# generated using pymatgen
data_NaCuCl3
_symmetry_space_group_name_H-M   'P 1'
_cell_length_a   6.39044418
_cell_length_b   7.04899070
_cell_length_c   9.11438260
_cell_angle_alpha   89.99253014
_cell_angle_beta   89.64678853
_cell_angle_gamma   89.97047117
_symmetry_Int_Tables_number   1
_chemical_formula_structural   NaCuCl3
_chemical_formula_sum   'Na4 Cu4 Cl12'
_cell_volume   410.56027457
_cell_formula_units_Z   4
loop_
 _symmetry_equiv_pos_site_id
 _symmetry_equiv_pos_as_xyz
  1  'x, y, z'
loop_
 _atom_site_type_symbol
 _atom_site_label
 _atom_site_symmetry_multiplicity
 _atom_site_fract_x
 _atom_site_fract_y
 _atom_site_fract_z
 _atom_site_occupancy
  Cl  Cl0  1  0.29037301  0.67088277  0.04924532  1
  Cl  Cl1  1  0.20989510  0.16908819  0.05114075  1
  Cl  Cl2  1  0.89523332  0.51108944  0.24884224  1
  Cl  Cl3  1  0.60487685  0.01078321  0.25124133  1
  Cl  Cl4  1  0.29017673  0.66907434  0.44900341  1
  Cl  Cl5  1  0.20964985  0.17087471  0.45062218  1
  Cl  Cl6  1  0.79035015  0.82912529  0.54937782  1
  Cl  Cl7  1  0.70982327  0.33092566  0.55099659  1
  Cl  Cl8  1  0.39512315  0.98921679  0.74875867  1
  Cl  Cl9  1  0.10476668  0.48891056  0.75115776  1
  Cl  Cl10  1  0.79010490  0.83091181  0.94885925  1
  Cl  Cl11  1  0.70962699  0.32911723  0.95075468  1
  Cu  Cu12  1  0.50000000  0.00000000  0.00000000  1
  Cu  Cu13  1  0.00000000  0.50000000  0.00000000  1
  Cu  Cu14  1  0.50000000  0.00000000  0.50000000  1
  Cu  Cu15  1  0.00000000  0.50000000  0.50000000  1
  Na  Na16  1  0.46839039  0.40400515  0.24862837  1
  Na  Na17  1  0.03200341  0.90394869  0.25137475  1
  Na  Na18  1  0.96799659  0.09605131  0.74862525  1
  Na  Na19  1  0.53160961  0.59599485  0.75137163  1
