# generated using pymatgen
data_MnAsO3
_symmetry_space_group_name_H-M   'P 1'
_cell_length_a   5.20432328
_cell_length_b   5.40257856
_cell_length_c   7.56228888
_cell_angle_alpha   90.00000000
_cell_angle_beta   90.00000000
_cell_angle_gamma   90.00000000
_symmetry_Int_Tables_number   1
_chemical_formula_structural   MnAsO3
_chemical_formula_sum   'Mn4 As4 O12'
_cell_volume   212.62710227
_cell_formula_units_Z   4
loop_
 _symmetry_equiv_pos_site_id
 _symmetry_equiv_pos_as_xyz
  1  'x, y, z'
loop_
 _atom_site_type_symbol
 _atom_site_label
 _atom_site_symmetry_multiplicity
 _atom_site_fract_x
 _atom_site_fract_y
 _atom_site_fract_z
 _atom_site_occupancy
  As  As0  1  0.49999968  0.00000000  0.00000000  1
  As  As1  1  0.00000000  0.50000013  0.00000000  1
  As  As2  1  0.49999968  0.00000000  0.49999941  1
  As  As3  1  0.00000000  0.50000013  0.49999941  1
  Mn  Mn4  1  0.98402419  0.05559197  0.24999971  1
  Mn  Mn5  1  0.51597486  0.55559211  0.24999971  1
  Mn  Mn6  1  0.48402451  0.44440631  0.74999912  1
  Mn  Mn7  1  0.01597518  0.94440829  0.74999912  1
  O  O8  1  0.69144052  0.30376976  0.06399650  1
  O  O9  1  0.80855853  0.80376989  0.06399650  1
  O  O10  1  0.12166808  0.44756776  0.24999971  1
  O  O11  1  0.37833161  0.94756790  0.24999971  1
  O  O12  1  0.69144052  0.30376976  0.43600292  1
  O  O13  1  0.80855853  0.80376989  0.43600292  1
  O  O14  1  0.19144276  0.19623037  0.56399723  1
  O  O15  1  0.30855693  0.69623050  0.56399723  1
  O  O16  1  0.62166776  0.05243237  0.74999912  1
  O  O17  1  0.87833322  0.55243435  0.74999912  1
  O  O18  1  0.19144276  0.19623037  0.93600233  1
  O  O19  1  0.30855693  0.69623050  0.93600233  1
