# generated using pymatgen
data_TaAgS3
_symmetry_space_group_name_H-M   'P 1'
_cell_length_a   6.79334122
_cell_length_b   6.79334122
_cell_length_c   6.79334193
_cell_angle_alpha   60.00000346
_cell_angle_beta   60.00000346
_cell_angle_gamma   90.00000000
_symmetry_Int_Tables_number   1
_chemical_formula_structural   TaAgS3
_chemical_formula_sum   'Ta2 Ag2 S6'
_cell_volume   221.68452683
_cell_formula_units_Z   2
loop_
 _symmetry_equiv_pos_site_id
 _symmetry_equiv_pos_as_xyz
  1  'x, y, z'
loop_
 _atom_site_type_symbol
 _atom_site_label
 _atom_site_symmetry_multiplicity
 _atom_site_fract_x
 _atom_site_fract_y
 _atom_site_fract_z
 _atom_site_occupancy
  Ag  Ag0  1  0.74999968  0.25000106  0.49999806  1
  Ag  Ag1  1  0.24999855  0.75000011  0.50000014  1
  S  S2  1  0.24999793  0.24999793  0.00000000  1
  S  S3  1  0.75000225  0.24999793  0.00000000  1
  S  S4  1  0.75000225  0.75000225  0.00000000  1
  S  S5  1  0.24999646  0.75000373  0.00000000  1
  S  S6  1  0.75000219  0.75000219  0.49999598  1
  S  S7  1  0.24999794  0.24999794  0.50000430  1
  Ta  Ta8  1  0.00000000  0.00000000  0.00000000  1
  Ta  Ta9  1  0.50000009  0.50000009  0.00000000  1
