# generated using pymatgen
data_CaDyO3
_symmetry_space_group_name_H-M   'P 1'
_cell_length_a   5.89514865
_cell_length_b   6.11878068
_cell_length_c   7.85462447
_cell_angle_alpha   90.00000000
_cell_angle_beta   90.00000000
_cell_angle_gamma   90.00000000
_symmetry_Int_Tables_number   1
_chemical_formula_structural   CaDyO3
_chemical_formula_sum   'Ca4 Dy4 O12'
_cell_volume   283.32511497
_cell_formula_units_Z   4
loop_
 _symmetry_equiv_pos_site_id
 _symmetry_equiv_pos_as_xyz
  1  'x, y, z'
loop_
 _atom_site_type_symbol
 _atom_site_label
 _atom_site_symmetry_multiplicity
 _atom_site_fract_x
 _atom_site_fract_y
 _atom_site_fract_z
 _atom_site_occupancy
  Ca  Ca0  1  0.98310328  0.05796907  0.24999922  1
  Ca  Ca1  1  0.51689791  0.55796901  0.24999922  1
  Ca  Ca2  1  0.48310232  0.44203088  0.75000021  1
  Ca  Ca3  1  0.01689694  0.94203082  0.75000021  1
  Dy  Dy4  1  0.50000096  0.00000000  0.00000000  1
  Dy  Dy5  1  0.00000000  0.49999994  0.00000000  1
  Dy  Dy6  1  0.50000096  0.00000000  0.49999972  1
  Dy  Dy7  1  0.00000000  0.49999994  0.49999972  1
  O  O8  1  0.70487451  0.29092724  0.08948486  1
  O  O9  1  0.79512329  0.79092719  0.08948486  1
  O  O10  1  0.15972456  0.41078282  0.24999922  1
  O  O11  1  0.34027301  0.91078277  0.24999922  1
  O  O12  1  0.70487451  0.29092724  0.41051485  1
  O  O13  1  0.79512329  0.79092719  0.41051485  1
  O  O14  1  0.20487524  0.20907107  0.58948585  1
  O  O15  1  0.29512403  0.70907101  0.58948585  1
  O  O16  1  0.65972552  0.08921876  0.75000021  1
  O  O17  1  0.84027398  0.58921707  0.75000021  1
  O  O18  1  0.20487524  0.20907107  0.91051584  1
  O  O19  1  0.29512403  0.70907101  0.91051584  1
