# generated using pymatgen
data_InRhO3
_symmetry_space_group_name_H-M   'P 1'
_cell_length_a   5.34065300
_cell_length_b   5.49879500
_cell_length_c   7.86630500
_cell_angle_alpha   90.00000000
_cell_angle_beta   90.00000000
_cell_angle_gamma   90.00000000
_symmetry_Int_Tables_number   1
_chemical_formula_structural   InRhO3
_chemical_formula_sum   'In4 Rh4 O12'
_cell_volume   231.01100618
_cell_formula_units_Z   4
loop_
 _symmetry_equiv_pos_site_id
 _symmetry_equiv_pos_as_xyz
  1  'x, y, z'
loop_
 _atom_site_type_symbol
 _atom_site_label
 _atom_site_symmetry_multiplicity
 _atom_site_fract_x
 _atom_site_fract_y
 _atom_site_fract_z
 _atom_site_occupancy
  In  In0  1  0.52485700  0.56225500  0.25000000  1
  In  In1  1  0.97514300  0.06225500  0.25000000  1
  In  In2  1  0.47514300  0.43774500  0.75000000  1
  In  In3  1  0.02485700  0.93774500  0.75000000  1
  Rh  Rh4  1  0.00000000  0.50000000  0.00000000  1
  Rh  Rh5  1  0.50000000  0.00000000  0.50000000  1
  Rh  Rh6  1  0.00000000  0.50000000  0.50000000  1
  Rh  Rh7  1  0.50000000  0.00000000  0.00000000  1
  O  O8  1  0.36377000  0.93008000  0.25000000  1
  O  O9  1  0.13623000  0.43008000  0.25000000  1
  O  O10  1  0.63623000  0.06992000  0.75000000  1
  O  O11  1  0.86377000  0.56992000  0.75000000  1
  O  O12  1  0.80302600  0.80023700  0.07834100  1
  O  O13  1  0.69697400  0.30023700  0.42165900  1
  O  O14  1  0.19697400  0.19976300  0.57834100  1
  O  O15  1  0.30302600  0.69976300  0.92165900  1
  O  O16  1  0.19697400  0.19976300  0.92165900  1
  O  O17  1  0.30302600  0.69976300  0.57834100  1
  O  O18  1  0.80302600  0.80023700  0.42165900  1
  O  O19  1  0.69697400  0.30023700  0.07834100  1
