# generated using pymatgen
data_CeSnO3
_symmetry_space_group_name_H-M   'P 1'
_cell_length_a   5.80054922
_cell_length_b   6.12485642
_cell_length_c   8.44658939
_cell_angle_alpha   90.00000000
_cell_angle_beta   90.00000000
_cell_angle_gamma   90.00000000
_symmetry_Int_Tables_number   1
_chemical_formula_structural   CeSnO3
_chemical_formula_sum   'Ce4 Sn4 O12'
_cell_volume   300.08646777
_cell_formula_units_Z   4
loop_
 _symmetry_equiv_pos_site_id
 _symmetry_equiv_pos_as_xyz
  1  'x, y, z'
loop_
 _atom_site_type_symbol
 _atom_site_label
 _atom_site_symmetry_multiplicity
 _atom_site_fract_x
 _atom_site_fract_y
 _atom_site_fract_z
 _atom_site_occupancy
  Ce  Ce0  1  0.97987273  0.06054673  0.24999913  1
  Ce  Ce1  1  0.52012661  0.56054865  0.24999913  1
  Ce  Ce2  1  0.47987352  0.43945193  0.74999976  1
  Ce  Ce3  1  0.02012740  0.93945223  0.74999976  1
  O  O4  1  0.69420323  0.30319241  0.06707204  1
  O  O5  1  0.80579783  0.80319271  0.06707204  1
  O  O6  1  0.13175649  0.44169199  0.24999913  1
  O  O7  1  0.36824444  0.94169065  0.24999913  1
  O  O8  1  0.69420323  0.30319241  0.43292740  1
  O  O9  1  0.80579783  0.80319271  0.43292740  1
  O  O10  1  0.19420402  0.19680788  0.56707267  1
  O  O11  1  0.30579691  0.69680817  0.56707267  1
  O  O12  1  0.63175742  0.05830831  0.74999976  1
  O  O13  1  0.86824364  0.55830860  0.74999976  1
  O  O14  1  0.19420402  0.19680788  0.93292803  1
  O  O15  1  0.30579691  0.69680817  0.93292803  1
  Sn  Sn16  1  0.49999920  0.00000000  0.00000000  1
  Sn  Sn17  1  0.00000000  0.50000029  0.00000000  1
  Sn  Sn18  1  0.49999920  0.00000000  0.50000063  1
  Sn  Sn19  1  0.00000000  0.50000029  0.50000063  1
