# generated using pymatgen
data_AcReO3
_symmetry_space_group_name_H-M   'P 1'
_cell_length_a   5.55607487
_cell_length_b   5.97787017
_cell_length_c   8.04559875
_cell_angle_alpha   90.00000000
_cell_angle_beta   90.00000000
_cell_angle_gamma   90.00000000
_symmetry_Int_Tables_number   1
_chemical_formula_structural   AcReO3
_chemical_formula_sum   'Ac4 Re4 O12'
_cell_volume   267.22244774
_cell_formula_units_Z   4
loop_
 _symmetry_equiv_pos_site_id
 _symmetry_equiv_pos_as_xyz
  1  'x, y, z'
loop_
 _atom_site_type_symbol
 _atom_site_label
 _atom_site_symmetry_multiplicity
 _atom_site_fract_x
 _atom_site_fract_y
 _atom_site_fract_z
 _atom_site_occupancy
  Ac  Ac0  1  0.98226538  0.05721436  0.25000004  1
  Ac  Ac1  1  0.51773420  0.55721351  0.25000004  1
  Ac  Ac2  1  0.48226672  0.44278479  0.75000012  1
  Ac  Ac3  1  0.01773554  0.94278561  0.75000012  1
  O  O4  1  0.69912845  0.29255236  0.03605698  1
  O  O5  1  0.80087114  0.79255318  0.03605698  1
  O  O6  1  0.07642266  0.48132193  0.25000004  1
  O  O7  1  0.42357601  0.98132108  0.25000004  1
  O  O8  1  0.69912845  0.29255236  0.46394185  1
  O  O9  1  0.80087114  0.79255318  0.46394185  1
  O  O10  1  0.19912799  0.20744679  0.53605830  1
  O  O11  1  0.30087248  0.70744594  0.53605830  1
  O  O12  1  0.57642312  0.01867722  0.75000012  1
  O  O13  1  0.92357647  0.51867972  0.75000012  1
  O  O14  1  0.19912799  0.20744679  0.96394317  1
  O  O15  1  0.30087248  0.70744594  0.96394317  1
  Re  Re16  1  0.50000046  0.00000000  0.00000000  1
  Re  Re17  1  0.00000000  0.49999915  0.00000000  1
  Re  Re18  1  0.50000046  0.00000000  0.49999883  1
  Re  Re19  1  0.00000000  0.49999915  0.49999883  1
