# generated using pymatgen
data_BaHoO3
_symmetry_space_group_name_H-M   'P 1'
_cell_length_a   6.15914522
_cell_length_b   6.17113114
_cell_length_c   8.72656451
_cell_angle_alpha   90.00000000
_cell_angle_beta   90.00000000
_cell_angle_gamma   90.00000000
_symmetry_Int_Tables_number   1
_chemical_formula_structural   BaHoO3
_chemical_formula_sum   'Ba4 Ho4 O12'
_cell_volume   331.68705551
_cell_formula_units_Z   4
loop_
 _symmetry_equiv_pos_site_id
 _symmetry_equiv_pos_as_xyz
  1  'x, y, z'
loop_
 _atom_site_type_symbol
 _atom_site_label
 _atom_site_symmetry_multiplicity
 _atom_site_fract_x
 _atom_site_fract_y
 _atom_site_fract_z
 _atom_site_occupancy
  Ba  Ba0  1  0.99511536  0.02408148  0.24999987  1
  Ba  Ba1  1  0.50488337  0.52407896  0.24999987  1
  Ba  Ba2  1  0.49511578  0.47591923  0.74999961  1
  Ba  Ba3  1  0.00488379  0.97591995  0.74999961  1
  Ho  Ho4  1  0.49999958  0.00000000  0.00000000  1
  Ho  Ho5  1  0.00000000  0.50000072  0.00000000  1
  Ho  Ho6  1  0.49999958  0.00000000  0.50000089  1
  Ho  Ho7  1  0.00000000  0.50000072  0.50000089  1
  O  O8  1  0.71918746  0.28017554  0.03727584  1
  O  O9  1  0.78081127  0.78017464  0.03727584  1
  O  O10  1  0.07005030  0.48294712  0.24999987  1
  O  O11  1  0.42994927  0.98294622  0.24999987  1
  O  O12  1  0.71918746  0.28017554  0.46272390  1
  O  O13  1  0.78081127  0.78017464  0.46272390  1
  O  O14  1  0.21918788  0.21982518  0.53727672  1
  O  O15  1  0.28081169  0.71982590  0.53727672  1
  O  O16  1  0.57004988  0.01705198  0.74999961  1
  O  O17  1  0.92995047  0.51705270  0.74999961  1
  O  O18  1  0.21918788  0.21982518  0.96272365  1
  O  O19  1  0.28081169  0.71982590  0.96272365  1
