# generated using pymatgen
data_YInO3
_symmetry_space_group_name_H-M   'P 1'
_cell_length_a   5.51969300
_cell_length_b   8.03787600
_cell_length_c   5.91061300
_cell_angle_alpha   90.00000000
_cell_angle_beta   90.00000000
_cell_angle_gamma   90.00000000
_symmetry_Int_Tables_number   1
_chemical_formula_structural   YInO3
_chemical_formula_sum   'Y4 In4 O12'
_cell_volume   262.23384937
_cell_formula_units_Z   4
loop_
 _symmetry_equiv_pos_site_id
 _symmetry_equiv_pos_as_xyz
  1  'x, y, z'
loop_
 _atom_site_type_symbol
 _atom_site_label
 _atom_site_symmetry_multiplicity
 _atom_site_fract_x
 _atom_site_fract_y
 _atom_site_fract_z
 _atom_site_occupancy
  In  In0  1  0.00000000  0.75000007  0.50000080  1
  In  In1  1  0.00000000  0.24999993  0.50000080  1
  In  In2  1  0.50000026  0.75000007  0.00000000  1
  In  In3  1  0.50000026  0.24999993  0.00000000  1
  O  O4  1  0.13195725  0.00000000  0.45110986  1
  O  O5  1  0.17228246  0.69203359  0.18408824  1
  O  O6  1  0.17228246  0.30796641  0.18408824  1
  O  O7  1  0.32771780  0.69203359  0.68408904  1
  O  O8  1  0.32771780  0.30796641  0.68408904  1
  O  O9  1  0.36804301  0.00000000  0.95111066  1
  O  O10  1  0.63195750  0.50000000  0.04888927  1
  O  O11  1  0.67228272  0.19203345  0.31591089  1
  O  O12  1  0.67228272  0.80796655  0.31591089  1
  O  O13  1  0.82771806  0.19203345  0.81591169  1
  O  O14  1  0.82771806  0.80796655  0.81591169  1
  O  O15  1  0.86804149  0.50000000  0.54889007  1
  Y  Y16  1  0.01281157  0.50000000  0.95286282  1
  Y  Y17  1  0.48718869  0.50000000  0.45286202  1
  Y  Y18  1  0.51281183  0.00000000  0.54713791  1
  Y  Y19  1  0.98718843  0.00000000  0.04713711  1
