# generated using pymatgen
data_InRuO3
_symmetry_space_group_name_H-M   'P 1'
_cell_length_a   5.33691693
_cell_length_b   5.44331594
_cell_length_c   7.69890783
_cell_angle_alpha   90.00000000
_cell_angle_beta   90.00000000
_cell_angle_gamma   90.00000000
_symmetry_Int_Tables_number   1
_chemical_formula_structural   InRuO3
_chemical_formula_sum   'In4 Ru4 O12'
_cell_volume   223.65731418
_cell_formula_units_Z   4
loop_
 _symmetry_equiv_pos_site_id
 _symmetry_equiv_pos_as_xyz
  1  'x, y, z'
loop_
 _atom_site_type_symbol
 _atom_site_label
 _atom_site_symmetry_multiplicity
 _atom_site_fract_x
 _atom_site_fract_y
 _atom_site_fract_z
 _atom_site_occupancy
  In  In0  1  0.98387516  0.06110614  0.25000040  1
  In  In1  1  0.51612383  0.56110651  0.25000040  1
  In  In2  1  0.48387675  0.43889424  0.74999989  1
  In  In3  1  0.01612354  0.93889277  0.74999989  1
  O  O4  1  0.68844617  0.30993608  0.07050610  1
  O  O5  1  0.81155282  0.80993645  0.07050610  1
  O  O6  1  0.13451024  0.43005587  0.25000040  1
  O  O7  1  0.36549004  0.93005625  0.25000040  1
  O  O8  1  0.68844617  0.30993608  0.42949339  1
  O  O9  1  0.81155282  0.80993645  0.42949339  1
  O  O10  1  0.18844588  0.19006246  0.57050690  1
  O  O11  1  0.31155441  0.69006283  0.57050690  1
  O  O12  1  0.63451053  0.06994450  0.74999989  1
  O  O13  1  0.86549033  0.56994303  0.74999989  1
  O  O14  1  0.18844588  0.19006246  0.92949288  1
  O  O15  1  0.31155441  0.69006283  0.92949288  1
  Ru  Ru16  1  0.50000029  0.00000000  0.00000000  1
  Ru  Ru17  1  0.00000000  0.50000037  0.00000000  1
  Ru  Ru18  1  0.50000029  0.00000000  0.49999949  1
  Ru  Ru19  1  0.00000000  0.50000037  0.49999949  1
