# generated using pymatgen
data_K3PAu
_symmetry_space_group_name_H-M   'P 1'
_cell_length_a   6.15495500
_cell_length_b   6.15495500
_cell_length_c   6.15495500
_cell_angle_alpha   90.00000000
_cell_angle_beta   90.00000000
_cell_angle_gamma   90.00000000
_symmetry_Int_Tables_number   1
_chemical_formula_structural   K3PAu
_chemical_formula_sum   'K3 P1 Au1'
_cell_volume   233.17105957
_cell_formula_units_Z   1
loop_
 _symmetry_equiv_pos_site_id
 _symmetry_equiv_pos_as_xyz
  1  'x, y, z'
loop_
 _atom_site_type_symbol
 _atom_site_label
 _atom_site_symmetry_multiplicity
 _atom_site_fract_x
 _atom_site_fract_y
 _atom_site_fract_z
 _atom_site_occupancy
  Au  Au0  1  0.00000000  0.00000000  0.00000000  1
  K  K1  1  0.50000000  0.50000000  0.00000000  1
  K  K2  1  0.00000000  0.50000000  0.50000000  1
  K  K3  1  0.50000000  0.00000000  0.50000000  1
  P  P4  1  0.50000000  0.50000000  0.50000000  1
