# generated using pymatgen
data_CsBaCl3
_symmetry_space_group_name_H-M   'P 1'
_cell_length_a   5.66134800
_cell_length_b   5.66134800
_cell_length_c   5.67012700
_cell_angle_alpha   90.00000000
_cell_angle_beta   90.00000000
_cell_angle_gamma   90.00000000
_symmetry_Int_Tables_number   1
_chemical_formula_structural   CsBaCl3
_chemical_formula_sum   'Cs1 Ba1 Cl3'
_cell_volume   181.73245333
_cell_formula_units_Z   1
loop_
 _symmetry_equiv_pos_site_id
 _symmetry_equiv_pos_as_xyz
  1  'x, y, z'
loop_
 _atom_site_type_symbol
 _atom_site_label
 _atom_site_symmetry_multiplicity
 _atom_site_fract_x
 _atom_site_fract_y
 _atom_site_fract_z
 _atom_site_occupancy
  Ba  Ba0  1  0.00000000  0.00000000  0.52309058  1
  Cl  Cl1  1  0.00000000  0.00000000  0.02500649  1
  Cl  Cl2  1  0.00000000  0.50000000  0.53892797  1
  Cl  Cl3  1  0.50000000  0.00000000  0.53892797  1
  Cs  Cs4  1  0.50000000  0.50000000  0.01604373  1
