# generated using pymatgen
data_K3OF
_symmetry_space_group_name_H-M   'P 1'
_cell_length_a   7.30910600
_cell_length_b   10.24944700
_cell_length_c   7.22033900
_cell_angle_alpha   90.00000000
_cell_angle_beta   90.00000000
_cell_angle_gamma   90.00000000
_symmetry_Int_Tables_number   1
_chemical_formula_structural   K3OF
_chemical_formula_sum   'K12 O4 F4'
_cell_volume   540.90660270
_cell_formula_units_Z   4
loop_
 _symmetry_equiv_pos_site_id
 _symmetry_equiv_pos_as_xyz
  1  'x, y, z'
loop_
 _atom_site_type_symbol
 _atom_site_label
 _atom_site_symmetry_multiplicity
 _atom_site_fract_x
 _atom_site_fract_y
 _atom_site_fract_z
 _atom_site_occupancy
  F  F0  1  0.54023770  0.75000000  0.99336456  1
  F  F1  1  0.04023770  0.75000000  0.50663544  1
  F  F2  1  0.95976230  0.25000000  0.49336456  1
  F  F3  1  0.45976230  0.25000000  0.00663544  1
  K  K4  1  0.79547136  0.53421290  0.70321900  1
  K  K5  1  0.29547136  0.53421290  0.79678100  1
  K  K6  1  0.97800941  0.75000000  0.06917540  1
  K  K7  1  0.47800941  0.75000000  0.43082460  1
  K  K8  1  0.79547136  0.96578710  0.70321900  1
  K  K9  1  0.29547136  0.96578710  0.79678100  1
  K  K10  1  0.70452864  0.03421290  0.20321900  1
  K  K11  1  0.20452864  0.03421290  0.29678100  1
  K  K12  1  0.52199059  0.25000000  0.56917540  1
  K  K13  1  0.02199059  0.25000000  0.93082460  1
  K  K14  1  0.70452864  0.46578710  0.20321900  1
  K  K15  1  0.20452864  0.46578710  0.29678100  1
  O  O16  1  0.50000000  0.50000000  0.50000000  1
  O  O17  1  0.00000000  0.50000000  0.00000000  1
  O  O18  1  0.50000000  0.00000000  0.50000000  1
  O  O19  1  0.00000000  0.00000000  0.00000000  1
