# generated using pymatgen
data_ThTlO3
_symmetry_space_group_name_H-M   'P 1'
_cell_length_a   6.02421323
_cell_length_b   6.30196454
_cell_length_c   8.85361051
_cell_angle_alpha   90.00000000
_cell_angle_beta   90.00000000
_cell_angle_gamma   90.00000000
_symmetry_Int_Tables_number   1
_chemical_formula_structural   ThTlO3
_chemical_formula_sum   'Th4 Tl4 O12'
_cell_volume   336.12181770
_cell_formula_units_Z   4
loop_
 _symmetry_equiv_pos_site_id
 _symmetry_equiv_pos_as_xyz
  1  'x, y, z'
loop_
 _atom_site_type_symbol
 _atom_site_label
 _atom_site_symmetry_multiplicity
 _atom_site_fract_x
 _atom_site_fract_y
 _atom_site_fract_z
 _atom_site_occupancy
  O  O0  1  0.67537284  0.31662349  0.06593016  1
  O  O1  1  0.82462719  0.81662313  0.06593016  1
  O  O2  1  0.13389798  0.43653054  0.24999970  1
  O  O3  1  0.36610092  0.93653018  0.24999970  1
  O  O4  1  0.67537284  0.31662349  0.43406924  1
  O  O5  1  0.82462719  0.81662313  0.43406924  1
  O  O6  1  0.17537228  0.18337774  0.56593070  1
  O  O7  1  0.32462828  0.68337579  0.56593070  1
  O  O8  1  0.63389854  0.06346910  0.75000024  1
  O  O9  1  0.86610148  0.56347032  0.75000024  1
  O  O10  1  0.17537228  0.18337774  0.93406978  1
  O  O11  1  0.32462828  0.68337579  0.93406978  1
  Th  Th12  1  0.50000056  0.00000000  0.00000000  1
  Th  Th13  1  0.00000000  0.50000123  0.00000000  1
  Th  Th14  1  0.50000056  0.00000000  0.50000054  1
  Th  Th15  1  0.00000000  0.50000123  0.50000054  1
  Tl  Tl16  1  0.99138423  0.04258037  0.24999970  1
  Tl  Tl17  1  0.50861745  0.54258001  0.24999970  1
  Tl  Tl18  1  0.49138367  0.45741927  0.75000024  1
  Tl  Tl19  1  0.00861855  0.95742049  0.75000024  1
