# generated using pymatgen
data_AcHfO3
_symmetry_space_group_name_H-M   'P 1'
_cell_length_a   5.77286710
_cell_length_b   5.94043170
_cell_length_c   8.32417595
_cell_angle_alpha   90.00000000
_cell_angle_beta   90.00000000
_cell_angle_gamma   90.00000000
_symmetry_Int_Tables_number   1
_chemical_formula_structural   AcHfO3
_chemical_formula_sum   'Ac4 Hf4 O12'
_cell_volume   285.46365232
_cell_formula_units_Z   4
loop_
 _symmetry_equiv_pos_site_id
 _symmetry_equiv_pos_as_xyz
  1  'x, y, z'
loop_
 _atom_site_type_symbol
 _atom_site_label
 _atom_site_symmetry_multiplicity
 _atom_site_fract_x
 _atom_site_fract_y
 _atom_site_fract_z
 _atom_site_occupancy
  Ac  Ac0  1  0.99757363  0.05449772  0.24999952  1
  Ac  Ac1  1  0.50242626  0.55449842  0.24999952  1
  Ac  Ac2  1  0.49757425  0.44550129  0.75000097  1
  Ac  Ac3  1  0.00242514  0.94550031  0.75000097  1
  Hf  Hf4  1  0.49999939  0.00000000  0.00000000  1
  Hf  Hf5  1  0.00000000  0.50000070  0.00000000  1
  Hf  Hf6  1  0.49999939  0.00000000  0.49999904  1
  Hf  Hf7  1  0.00000000  0.50000070  0.49999904  1
  O  O8  1  0.69900622  0.29649697  0.03343034  1
  O  O9  1  0.80099367  0.79649767  0.03343034  1
  O  O10  1  0.05880787  0.48927084  0.24999952  1
  O  O11  1  0.44119325  0.98926985  0.24999952  1
  O  O12  1  0.69900622  0.29649697  0.46656871  1
  O  O13  1  0.80099367  0.79649767  0.46656871  1
  O  O14  1  0.19900683  0.20350036  0.53342938  1
  O  O15  1  0.30099428  0.70350106  0.53342938  1
  O  O16  1  0.55880725  0.01072986  0.75000097  1
  O  O17  1  0.94119264  0.51073056  0.75000097  1
  O  O18  1  0.19900683  0.20350036  0.96657015  1
  O  O19  1  0.30099428  0.70350106  0.96657015  1
