# generated using pymatgen
data_Ba3BP
_symmetry_space_group_name_H-M   'P 1'
_cell_length_a   7.94336900
_cell_length_b   8.26521000
_cell_length_c   11.76152000
_cell_angle_alpha   90.00000000
_cell_angle_beta   90.00000000
_cell_angle_gamma   90.00000000
_symmetry_Int_Tables_number   1
_chemical_formula_structural   Ba3BP
_chemical_formula_sum   'Ba12 B4 P4'
_cell_volume   772.18628111
_cell_formula_units_Z   4
loop_
 _symmetry_equiv_pos_site_id
 _symmetry_equiv_pos_as_xyz
  1  'x, y, z'
loop_
 _atom_site_type_symbol
 _atom_site_label
 _atom_site_symmetry_multiplicity
 _atom_site_fract_x
 _atom_site_fract_y
 _atom_site_fract_z
 _atom_site_occupancy
  B  B0  1  0.03235282  0.07232726  0.75000000  1
  B  B1  1  0.53235282  0.42767274  0.25000000  1
  B  B2  1  0.96764718  0.92767274  0.25000000  1
  B  B3  1  0.46764718  0.57232726  0.75000000  1
  Ba  Ba4  1  0.85578574  0.40547031  0.75000000  1
  Ba  Ba5  1  0.35578574  0.09452969  0.25000000  1
  Ba  Ba6  1  0.14421426  0.59452969  0.25000000  1
  Ba  Ba7  1  0.64421426  0.90547031  0.75000000  1
  Ba  Ba8  1  0.32510386  0.32352579  0.91712865  1
  Ba  Ba9  1  0.82510386  0.17647421  0.08287135  1
  Ba  Ba10  1  0.67489614  0.67647421  0.41712865  1
  Ba  Ba11  1  0.17489614  0.82352579  0.58287135  1
  Ba  Ba12  1  0.67489614  0.67647421  0.08287135  1
  Ba  Ba13  1  0.17489614  0.82352579  0.91712865  1
  Ba  Ba14  1  0.32510386  0.32352579  0.58287135  1
  Ba  Ba15  1  0.82510386  0.17647421  0.41712865  1
  P  P16  1  0.50000000  0.00000000  0.00000000  1
  P  P17  1  0.00000000  0.50000000  0.00000000  1
  P  P18  1  0.50000000  0.00000000  0.50000000  1
  P  P19  1  0.00000000  0.50000000  0.50000000  1
