# generated using pymatgen
data_NbPdO3
_symmetry_space_group_name_H-M   'P 1'
_cell_length_a   5.39138015
_cell_length_b   5.63005843
_cell_length_c   7.75463683
_cell_angle_alpha   90.00000000
_cell_angle_beta   90.00000000
_cell_angle_gamma   90.00000000
_symmetry_Int_Tables_number   1
_chemical_formula_structural   NbPdO3
_chemical_formula_sum   'Nb4 Pd4 O12'
_cell_volume   235.38258160
_cell_formula_units_Z   4
loop_
 _symmetry_equiv_pos_site_id
 _symmetry_equiv_pos_as_xyz
  1  'x, y, z'
loop_
 _atom_site_type_symbol
 _atom_site_label
 _atom_site_symmetry_multiplicity
 _atom_site_fract_x
 _atom_site_fract_y
 _atom_site_fract_z
 _atom_site_occupancy
  Nb  Nb0  1  0.49999999  0.00000000  0.00000000  1
  Nb  Nb1  1  0.00000000  0.50000014  0.00000000  1
  Nb  Nb2  1  0.49999999  0.00000000  0.50000020  1
  Nb  Nb3  1  0.00000000  0.50000014  0.50000020  1
  O  O4  1  0.67840328  0.31566280  0.03082027  1
  O  O5  1  0.82159482  0.81566294  0.03082027  1
  O  O6  1  0.07431121  0.47668955  0.25000010  1
  O  O7  1  0.42568877  0.97668969  0.25000010  1
  O  O8  1  0.67840328  0.31566280  0.46917993  1
  O  O9  1  0.82159482  0.81566294  0.46917993  1
  O  O10  1  0.17840330  0.18433734  0.53082047  1
  O  O11  1  0.32159483  0.68433748  0.53082047  1
  O  O12  1  0.57431120  0.02331059  0.74999902  1
  O  O13  1  0.92568876  0.52330896  0.74999902  1
  O  O14  1  0.17840330  0.18433734  0.96918014  1
  O  O15  1  0.32159483  0.68433748  0.96918014  1
  Pd  Pd16  1  0.98256844  0.00775480  0.25000010  1
  Pd  Pd17  1  0.51743337  0.50775494  0.25000010  1
  Pd  Pd18  1  0.48256846  0.49224533  0.74999902  1
  Pd  Pd19  1  0.01743338  0.99224547  0.74999902  1
