# generated using pymatgen
data_CsCaH3
_symmetry_space_group_name_H-M   'P 1'
_cell_length_a   6.03000000
_cell_length_b   8.11800000
_cell_length_c   6.51900000
_cell_angle_alpha   90.00000000
_cell_angle_beta   90.00000000
_cell_angle_gamma   90.00000000
_symmetry_Int_Tables_number   1
_chemical_formula_structural   CsCaH3
_chemical_formula_sum   'Cs4 Ca4 H12'
_cell_volume   319.11508926
_cell_formula_units_Z   4
loop_
 _symmetry_equiv_pos_site_id
 _symmetry_equiv_pos_as_xyz
  1  'x, y, z'
loop_
 _atom_site_type_symbol
 _atom_site_label
 _atom_site_symmetry_multiplicity
 _atom_site_fract_x
 _atom_site_fract_y
 _atom_site_fract_z
 _atom_site_occupancy
  Ca  Ca0  1  0.50000139  0.75000000  0.99989547  1
  Ca  Ca1  1  0.00000000  0.75000000  0.50010453  1
  Ca  Ca2  1  0.00000000  0.25000000  0.49989547  1
  Ca  Ca3  1  0.49999861  0.25000000  0.00010453  1
  Cs  Cs4  1  0.00000000  0.00000000  0.00000000  1
  Cs  Cs5  1  0.00000000  0.50000000  0.00000000  1
  Cs  Cs6  1  0.50000000  0.00000000  0.50000000  1
  Cs  Cs7  1  0.50000000  0.50000000  0.50000000  1
  H  H8  1  0.00000000  0.25000000  0.00000000  1
  H  H9  1  0.00000000  0.75000000  0.00000000  1
  H  H10  1  0.74936404  0.50013195  0.75063654  1
  H  H11  1  0.74936404  0.99986805  0.75063654  1
  H  H12  1  0.24936404  0.50013195  0.74936346  1
  H  H13  1  0.24936404  0.99986805  0.74936346  1
  H  H14  1  0.49999861  0.25000000  0.50000000  1
  H  H15  1  0.50000139  0.75000000  0.50000000  1
  H  H16  1  0.75063596  0.00013195  0.25063654  1
  H  H17  1  0.75063596  0.49986805  0.25063654  1
  H  H18  1  0.25063596  0.00013195  0.24936346  1
  H  H19  1  0.25063596  0.49986805  0.24936346  1
