# generated using pymatgen
data_B3PBr
_symmetry_space_group_name_H-M   'P 1'
_cell_length_a   4.02361800
_cell_length_b   4.02171800
_cell_length_c   4.02171800
_cell_angle_alpha   90.00000000
_cell_angle_beta   90.00000000
_cell_angle_gamma   90.00000000
_symmetry_Int_Tables_number   1
_chemical_formula_structural   B3PBr
_chemical_formula_sum   'B3 P1 Br1'
_cell_volume   65.07886531
_cell_formula_units_Z   1
loop_
 _symmetry_equiv_pos_site_id
 _symmetry_equiv_pos_as_xyz
  1  'x, y, z'
loop_
 _atom_site_type_symbol
 _atom_site_label
 _atom_site_symmetry_multiplicity
 _atom_site_fract_x
 _atom_site_fract_y
 _atom_site_fract_z
 _atom_site_occupancy
  B  B0  1  0.00580318  0.50000000  0.50000000  1
  B  B1  1  0.50115699  0.00000000  0.50000000  1
  B  B2  1  0.50115699  0.50000000  0.00000000  1
  Br  Br3  1  0.00216863  0.00000000  0.00000000  1
  P  P4  1  0.50371420  0.50000000  0.50000000  1
