# generated using pymatgen
data_DyBeO3
_symmetry_space_group_name_H-M   'P 1'
_cell_length_a   4.94825068
_cell_length_b   5.29454736
_cell_length_c   7.07715269
_cell_angle_alpha   90.00000000
_cell_angle_beta   90.00000000
_cell_angle_gamma   90.00000000
_symmetry_Int_Tables_number   1
_chemical_formula_structural   DyBeO3
_chemical_formula_sum   'Dy4 Be4 O12'
_cell_volume   185.41253703
_cell_formula_units_Z   4
loop_
 _symmetry_equiv_pos_site_id
 _symmetry_equiv_pos_as_xyz
  1  'x, y, z'
loop_
 _atom_site_type_symbol
 _atom_site_label
 _atom_site_symmetry_multiplicity
 _atom_site_fract_x
 _atom_site_fract_y
 _atom_site_fract_z
 _atom_site_occupancy
  Be  Be0  1  0.50000094  0.00000000  0.00000000  1
  Be  Be1  1  0.00000000  0.50000119  0.00000000  1
  Be  Be2  1  0.50000094  0.00000000  0.50000052  1
  Be  Be3  1  0.00000000  0.50000119  0.50000052  1
  Dy  Dy4  1  0.98030401  0.06344641  0.25000026  1
  Dy  Dy5  1  0.51969679  0.56344760  0.25000026  1
  Dy  Dy6  1  0.48030509  0.43655290  0.75000077  1
  Dy  Dy7  1  0.01969585  0.93655220  0.75000077  1
  O  O8  1  0.69286304  0.27705673  0.03346685  1
  O  O9  1  0.80713777  0.77705415  0.03346685  1
  O  O10  1  0.06159753  0.49179653  0.25000026  1
  O  O11  1  0.43840342  0.99179583  0.25000026  1
  O  O12  1  0.69286304  0.27705673  0.46653225  1
  O  O13  1  0.80713777  0.77705415  0.46653225  1
  O  O14  1  0.19286412  0.22294446  0.53346737  1
  O  O15  1  0.30713682  0.72294376  0.53346737  1
  O  O16  1  0.56159645  0.00820467  0.75000077  1
  O  O17  1  0.93840436  0.50820397  0.75000077  1
  O  O18  1  0.19286412  0.22294446  0.96653277  1
  O  O19  1  0.30713682  0.72294376  0.96653277  1
