# generated using pymatgen
data_PmFeO3
_symmetry_space_group_name_H-M   'P 1'
_cell_length_a   3.85906633
_cell_length_b   3.85906633
_cell_length_c   3.86641195
_cell_angle_alpha   90.00000000
_cell_angle_beta   90.00000000
_cell_angle_gamma   90.00000000
_symmetry_Int_Tables_number   1
_chemical_formula_structural   PmFeO3
_chemical_formula_sum   'Pm1 Fe1 O3'
_cell_volume   57.58012594
_cell_formula_units_Z   1
loop_
 _symmetry_equiv_pos_site_id
 _symmetry_equiv_pos_as_xyz
  1  'x, y, z'
loop_
 _atom_site_type_symbol
 _atom_site_label
 _atom_site_symmetry_multiplicity
 _atom_site_fract_x
 _atom_site_fract_y
 _atom_site_fract_z
 _atom_site_occupancy
  Fe  Fe0  1  0.50000177  0.50000177  0.77923668  1
  O  O1  1  0.50000177  0.50000177  0.28055469  1
  O  O2  1  0.50000177  0.00000000  0.78343178  1
  O  O3  1  0.00000000  0.50000177  0.78343178  1
  Pm  Pm4  1  0.00000000  0.00000000  0.27334387  1
