# generated using pymatgen
data_PmFeO3
_symmetry_space_group_name_H-M   'P 1'
_cell_length_a   5.40463538
_cell_length_b   5.63904855
_cell_length_c   7.73535694
_cell_angle_alpha   90.00000000
_cell_angle_beta   90.00000000
_cell_angle_gamma   90.00000000
_symmetry_Int_Tables_number   1
_chemical_formula_structural   PmFeO3
_chemical_formula_sum   'Pm4 Fe4 O12'
_cell_volume   235.75048397
_cell_formula_units_Z   4
loop_
 _symmetry_equiv_pos_site_id
 _symmetry_equiv_pos_as_xyz
  1  'x, y, z'
loop_
 _atom_site_type_symbol
 _atom_site_label
 _atom_site_symmetry_multiplicity
 _atom_site_fract_x
 _atom_site_fract_y
 _atom_site_fract_z
 _atom_site_occupancy
  Fe  Fe0  1  0.50000043  0.00000000  0.00000000  1
  Fe  Fe1  1  0.00000000  0.49999924  0.00000000  1
  Fe  Fe2  1  0.50000043  0.00000000  0.50000020  1
  Fe  Fe3  1  0.00000000  0.49999924  0.50000020  1
  O  O4  1  0.69944034  0.29952039  0.05051868  1
  O  O5  1  0.80056094  0.79952140  0.05051868  1
  O  O6  1  0.09628957  0.47185088  0.25000010  1
  O  O7  1  0.40371086  0.97185189  0.25000010  1
  O  O8  1  0.69944034  0.29952039  0.44948152  1
  O  O9  1  0.80056094  0.79952140  0.44948152  1
  O  O10  1  0.19943991  0.20047886  0.55051887  1
  O  O11  1  0.30056052  0.70047987  0.55051887  1
  O  O12  1  0.59628999  0.02814837  0.75000030  1
  O  O13  1  0.90371129  0.52814938  0.75000030  1
  O  O14  1  0.19943991  0.20047886  0.94948172  1
  O  O15  1  0.30056052  0.70047987  0.94948172  1
  Pm  Pm16  1  0.98495821  0.06063080  0.25000010  1
  Pm  Pm17  1  0.51504122  0.56063181  0.25000010  1
  Pm  Pm18  1  0.48495963  0.43936845  0.75000030  1
  Pm  Pm19  1  0.01504079  0.93936946  0.75000030  1
