# generated using pymatgen
data_AcGdO3
_symmetry_space_group_name_H-M   'P 1'
_cell_length_a   6.02942189
_cell_length_b   6.22480375
_cell_length_c   8.67288472
_cell_angle_alpha   90.00000000
_cell_angle_beta   90.00000000
_cell_angle_gamma   90.00000000
_symmetry_Int_Tables_number   1
_chemical_formula_structural   AcGdO3
_chemical_formula_sum   'Ac4 Gd4 O12'
_cell_volume   325.51043119
_cell_formula_units_Z   4
loop_
 _symmetry_equiv_pos_site_id
 _symmetry_equiv_pos_as_xyz
  1  'x, y, z'
loop_
 _atom_site_type_symbol
 _atom_site_label
 _atom_site_symmetry_multiplicity
 _atom_site_fract_x
 _atom_site_fract_y
 _atom_site_fract_z
 _atom_site_occupancy
  Ac  Ac0  1  0.98607298  0.04875656  0.24999986  1
  Ac  Ac1  1  0.51392655  0.54875626  0.24999986  1
  Ac  Ac2  1  0.48607314  0.45124314  0.74999959  1
  Ac  Ac3  1  0.01392671  0.95124284  0.74999959  1
  Gd  Gd4  1  0.49999984  0.00000000  0.00000000  1
  Gd  Gd5  1  0.00000000  0.49999970  0.00000000  1
  Gd  Gd6  1  0.49999984  0.00000000  0.49999973  1
  Gd  Gd7  1  0.00000000  0.49999970  0.49999973  1
  O  O8  1  0.69376966  0.30434694  0.06492419  1
  O  O9  1  0.80622987  0.80434825  0.06492419  1
  O  O10  1  0.12157550  0.44522207  0.24999986  1
  O  O11  1  0.37842434  0.94522177  0.24999986  1
  O  O12  1  0.69376966  0.30434694  0.43507554  1
  O  O13  1  0.80622987  0.80434825  0.43507554  1
  O  O14  1  0.19376982  0.19565275  0.56492507  1
  O  O15  1  0.30623002  0.69565245  0.56492507  1
  O  O16  1  0.62157535  0.05477763  0.74999959  1
  O  O17  1  0.87842418  0.55477894  0.74999959  1
  O  O18  1  0.19376982  0.19565275  0.93507527  1
  O  O19  1  0.30623002  0.69565245  0.93507527  1
