# generated using pymatgen
data_BaTbO3
_symmetry_space_group_name_H-M   'P 1'
_cell_length_a   6.18856368
_cell_length_b   6.24258572
_cell_length_c   8.77316315
_cell_angle_alpha   90.00000000
_cell_angle_beta   90.00000000
_cell_angle_gamma   90.00000000
_symmetry_Int_Tables_number   1
_chemical_formula_structural   BaTbO3
_chemical_formula_sum   'Ba4 Tb4 O12'
_cell_volume   338.93044697
_cell_formula_units_Z   4
loop_
 _symmetry_equiv_pos_site_id
 _symmetry_equiv_pos_as_xyz
  1  'x, y, z'
loop_
 _atom_site_type_symbol
 _atom_site_label
 _atom_site_symmetry_multiplicity
 _atom_site_fract_x
 _atom_site_fract_y
 _atom_site_fract_z
 _atom_site_occupancy
  Ba  Ba0  1  0.99323855  0.03009170  0.24999991  1
  Ba  Ba1  1  0.50676218  0.53009124  0.24999991  1
  Ba  Ba2  1  0.49323723  0.46990945  0.75000087  1
  Ba  Ba3  1  0.00676086  0.96990899  0.75000087  1
  O  O4  1  0.71489286  0.28395125  0.03930737  1
  O  O5  1  0.78510786  0.78395239  0.03930737  1
  O  O6  1  0.07475079  0.47586691  0.24999991  1
  O  O7  1  0.42524892  0.97586646  0.24999991  1
  O  O8  1  0.71489286  0.28395125  0.46069131  1
  O  O9  1  0.78510786  0.78395239  0.46069131  1
  O  O10  1  0.21489154  0.21604829  0.53930833  1
  O  O11  1  0.28510654  0.71604623  0.53930833  1
  O  O12  1  0.57475211  0.02413423  0.75000087  1
  O  O13  1  0.92524862  0.52413217  0.75000087  1
  O  O14  1  0.21489154  0.21604829  0.96069113  1
  O  O15  1  0.28510654  0.71604623  0.96069113  1
  Tb  Tb16  1  0.50000132  0.00000000  0.00000000  1
  Tb  Tb17  1  0.00000000  0.49999954  0.00000000  1
  Tb  Tb18  1  0.50000132  0.00000000  0.49999982  1
  Tb  Tb19  1  0.00000000  0.49999954  0.49999982  1
