# generated using pymatgen
data_YB3Br
_symmetry_space_group_name_H-M   'P 1'
_cell_length_a   5.02780300
_cell_length_b   5.02780300
_cell_length_c   5.02780300
_cell_angle_alpha   90.00000000
_cell_angle_beta   90.00000000
_cell_angle_gamma   90.00000000
_symmetry_Int_Tables_number   1
_chemical_formula_structural   YB3Br
_chemical_formula_sum   'Y1 B3 Br1'
_cell_volume   127.09684159
_cell_formula_units_Z   1
loop_
 _symmetry_equiv_pos_site_id
 _symmetry_equiv_pos_as_xyz
  1  'x, y, z'
loop_
 _atom_site_type_symbol
 _atom_site_label
 _atom_site_symmetry_multiplicity
 _atom_site_fract_x
 _atom_site_fract_y
 _atom_site_fract_z
 _atom_site_occupancy
  B  B0  1  0.00000000  0.50000000  0.50000000  1
  B  B1  1  0.50000000  0.00000000  0.50000000  1
  B  B2  1  0.50000000  0.50000000  0.00000000  1
  Br  Br3  1  0.00000000  0.00000000  0.00000000  1
  Y  Y4  1  0.50000000  0.50000000  0.50000000  1
