# generated using pymatgen
data_RbSm3F
_symmetry_space_group_name_H-M   'P 1'
_cell_length_a   5.25575348
_cell_length_b   5.25575348
_cell_length_c   5.25575348
_cell_angle_alpha   90.00000000
_cell_angle_beta   90.00000000
_cell_angle_gamma   90.00000000
_symmetry_Int_Tables_number   1
_chemical_formula_structural   RbSm3F
_chemical_formula_sum   'Rb1 Sm3 F1'
_cell_volume   145.17938710
_cell_formula_units_Z   1
loop_
 _symmetry_equiv_pos_site_id
 _symmetry_equiv_pos_as_xyz
  1  'x, y, z'
loop_
 _atom_site_type_symbol
 _atom_site_label
 _atom_site_symmetry_multiplicity
 _atom_site_fract_x
 _atom_site_fract_y
 _atom_site_fract_z
 _atom_site_occupancy
  F  F0  1  0.00000000  0.00000000  0.00000000  1
  Rb  Rb1  1  0.50000000  0.50000000  0.50000000  1
  Sm  Sm2  1  0.00000000  0.00000000  0.50000000  1
  Sm  Sm3  1  0.00000000  0.50000000  0.00000000  1
  Sm  Sm4  1  0.50000000  0.00000000  0.00000000  1
