# generated using pymatgen
data_EuPaO3
_symmetry_space_group_name_H-M   'P 1'
_cell_length_a   5.96153828
_cell_length_b   6.20016900
_cell_length_c   8.59085137
_cell_angle_alpha   90.00000000
_cell_angle_beta   90.00000000
_cell_angle_gamma   90.00000000
_symmetry_Int_Tables_number   1
_chemical_formula_structural   EuPaO3
_chemical_formula_sum   'Eu4 Pa4 O12'
_cell_volume   317.53972877
_cell_formula_units_Z   4
loop_
 _symmetry_equiv_pos_site_id
 _symmetry_equiv_pos_as_xyz
  1  'x, y, z'
loop_
 _atom_site_type_symbol
 _atom_site_label
 _atom_site_symmetry_multiplicity
 _atom_site_fract_x
 _atom_site_fract_y
 _atom_site_fract_z
 _atom_site_occupancy
  Eu  Eu0  1  0.98712106  0.05261953  0.24999967  1
  Eu  Eu1  1  0.51287937  0.55261881  0.24999967  1
  Eu  Eu2  1  0.48712092  0.44738135  0.75000017  1
  Eu  Eu3  1  0.01287923  0.94738063  0.75000017  1
  O  O4  1  0.68517718  0.31098023  0.06872194  1
  O  O5  1  0.81482325  0.81097951  0.06872194  1
  O  O6  1  0.13143587  0.43824934  0.24999967  1
  O  O7  1  0.36856427  0.93825023  0.24999967  1
  O  O8  1  0.68517718  0.31098023  0.43127739  1
  O  O9  1  0.81482325  0.81097951  0.43127739  1
  O  O10  1  0.18517704  0.18902065  0.56872245  1
  O  O11  1  0.31482311  0.68901993  0.56872245  1
  O  O12  1  0.63143602  0.06174993  0.75000017  1
  O  O13  1  0.86856441  0.56175082  0.75000017  1
  O  O14  1  0.18517704  0.18902065  0.93127790  1
  O  O15  1  0.31482311  0.68901993  0.93127790  1
  Pa  Pa16  1  0.50000014  0.00000000  0.00000000  1
  Pa  Pa17  1  0.00000000  0.49999927  0.00000000  1
  Pa  Pa18  1  0.50000014  0.00000000  0.50000050  1
  Pa  Pa19  1  0.00000000  0.49999927  0.50000050  1
