# generated using pymatgen
data_BiAsO3
_symmetry_space_group_name_H-M   'P 1'
_cell_length_a   5.54581483
_cell_length_b   6.00359741
_cell_length_c   8.08096510
_cell_angle_alpha   90.00000000
_cell_angle_beta   90.00000000
_cell_angle_gamma   90.00000000
_symmetry_Int_Tables_number   1
_chemical_formula_structural   BiAsO3
_chemical_formula_sum   'Bi4 As4 O12'
_cell_volume   269.05443651
_cell_formula_units_Z   4
loop_
 _symmetry_equiv_pos_site_id
 _symmetry_equiv_pos_as_xyz
  1  'x, y, z'
loop_
 _atom_site_type_symbol
 _atom_site_label
 _atom_site_symmetry_multiplicity
 _atom_site_fract_x
 _atom_site_fract_y
 _atom_site_fract_z
 _atom_site_occupancy
  As  As0  1  0.50000047  0.00000000  0.00000000  1
  As  As1  1  0.00000000  0.50000022  0.00000000  1
  As  As2  1  0.50000047  0.00000000  0.50000092  1
  As  As3  1  0.00000000  0.50000022  0.50000092  1
  Bi  Bi4  1  0.98565498  0.04867415  0.24999984  1
  Bi  Bi5  1  0.51434642  0.54867270  0.24999984  1
  Bi  Bi6  1  0.48565451  0.45132607  0.74999953  1
  Bi  Bi7  1  0.01434595  0.95132628  0.74999953  1
  O  O8  1  0.67657506  0.30977593  0.05661205  1
  O  O9  1  0.82342453  0.80977615  0.05661205  1
  O  O10  1  0.12328215  0.45344480  0.24999984  1
  O  O11  1  0.37671651  0.95344501  0.24999984  1
  O  O12  1  0.67657506  0.30977593  0.44338887  1
  O  O13  1  0.82342453  0.80977615  0.44338887  1
  O  O14  1  0.17657640  0.19022428  0.55661050  1
  O  O15  1  0.32342407  0.69022450  0.55661050  1
  O  O16  1  0.62328262  0.04655542  0.74999953  1
  O  O17  1  0.87671697  0.54655564  0.74999953  1
  O  O18  1  0.17657640  0.19022428  0.94338856  1
  O  O19  1  0.32342407  0.69022450  0.94338856  1
