# generated using pymatgen
data_YbY3O
_symmetry_space_group_name_H-M   'P 1'
_cell_length_a   4.95634751
_cell_length_b   4.95634751
_cell_length_c   4.95634751
_cell_angle_alpha   90.00000000
_cell_angle_beta   90.00000000
_cell_angle_gamma   90.00000000
_symmetry_Int_Tables_number   1
_chemical_formula_structural   YbY3O
_chemical_formula_sum   'Yb1 Y3 O1'
_cell_volume   121.75456346
_cell_formula_units_Z   1
loop_
 _symmetry_equiv_pos_site_id
 _symmetry_equiv_pos_as_xyz
  1  'x, y, z'
loop_
 _atom_site_type_symbol
 _atom_site_label
 _atom_site_symmetry_multiplicity
 _atom_site_fract_x
 _atom_site_fract_y
 _atom_site_fract_z
 _atom_site_occupancy
  O  O0  1  0.00000000  0.00000000  0.00000000  1
  Y  Y1  1  0.00000000  0.00000000  0.50000000  1
  Y  Y2  1  0.00000000  0.50000000  0.00000000  1
  Y  Y3  1  0.50000000  0.00000000  0.00000000  1
  Yb  Yb4  1  0.50000000  0.50000000  0.50000000  1
