# generated using pymatgen
data_LiWO3
_symmetry_space_group_name_H-M   'P 1'
_cell_length_a   5.15743994
_cell_length_b   5.35182932
_cell_length_c   7.47109178
_cell_angle_alpha   90.00000000
_cell_angle_beta   90.00000000
_cell_angle_gamma   90.00000000
_symmetry_Int_Tables_number   1
_chemical_formula_structural   LiWO3
_chemical_formula_sum   'Li4 W4 O12'
_cell_volume   206.21512035
_cell_formula_units_Z   4
loop_
 _symmetry_equiv_pos_site_id
 _symmetry_equiv_pos_as_xyz
  1  'x, y, z'
loop_
 _atom_site_type_symbol
 _atom_site_label
 _atom_site_symmetry_multiplicity
 _atom_site_fract_x
 _atom_site_fract_y
 _atom_site_fract_z
 _atom_site_occupancy
  Li  Li0  1  0.99634122  0.02751396  0.24999961  1
  Li  Li1  1  0.50365880  0.52751495  0.24999961  1
  Li  Li2  1  0.49633927  0.47248517  0.75000016  1
  Li  Li3  1  0.00366073  0.97248430  0.75000016  1
  O  O4  1  0.68826201  0.30619437  0.05505755  1
  O  O5  1  0.81173800  0.80619350  0.05505755  1
  O  O6  1  0.10803616  0.46879671  0.24999961  1
  O  O7  1  0.39196191  0.96879397  0.24999961  1
  O  O8  1  0.68826201  0.30619437  0.44494300  1
  O  O9  1  0.81173800  0.80619350  0.44494300  1
  O  O10  1  0.18826201  0.19380663  0.55505676  1
  O  O11  1  0.31173606  0.69380576  0.55505676  1
  O  O12  1  0.60803616  0.03120428  0.75000016  1
  O  O13  1  0.89196385  0.53120528  0.75000016  1
  O  O14  1  0.18826201  0.19380663  0.94494221  1
  O  O15  1  0.31173606  0.69380576  0.94494221  1
  W  W16  1  0.50000001  0.00000000  0.00000000  1
  W  W17  1  0.00000000  0.50000100  0.00000000  1
  W  W18  1  0.50000001  0.00000000  0.49999921  1
  W  W19  1  0.00000000  0.50000100  0.49999921  1
