# generated using pymatgen
data_CuSbO3
_symmetry_space_group_name_H-M   'P 1'
_cell_length_a   5.33562126
_cell_length_b   5.41795192
_cell_length_c   7.66171527
_cell_angle_alpha   90.00000000
_cell_angle_beta   90.00000000
_cell_angle_gamma   90.00000000
_symmetry_Int_Tables_number   1
_chemical_formula_structural   CuSbO3
_chemical_formula_sum   'Cu4 Sb4 O12'
_cell_volume   221.48593349
_cell_formula_units_Z   4
loop_
 _symmetry_equiv_pos_site_id
 _symmetry_equiv_pos_as_xyz
  1  'x, y, z'
loop_
 _atom_site_type_symbol
 _atom_site_label
 _atom_site_symmetry_multiplicity
 _atom_site_fract_x
 _atom_site_fract_y
 _atom_site_fract_z
 _atom_site_occupancy
  Cu  Cu0  1  0.00214595  0.01116658  0.25000015  1
  Cu  Cu1  1  0.49785393  0.51116733  0.25000015  1
  Cu  Cu2  1  0.50214584  0.48883416  0.75000046  1
  Cu  Cu3  1  0.99785405  0.98883306  0.75000046  1
  O  O4  1  0.68434205  0.31283777  0.06226151  1
  O  O5  1  0.81565759  0.81283667  0.06226151  1
  O  O6  1  0.12034775  0.45775785  0.25000015  1
  O  O7  1  0.37965213  0.95775859  0.25000015  1
  O  O8  1  0.68434205  0.31283777  0.43773879  1
  O  O9  1  0.81565759  0.81283667  0.43773879  1
  O  O10  1  0.18434217  0.18716298  0.56226182  1
  O  O11  1  0.31565771  0.68716372  0.56226182  1
  O  O12  1  0.62034763  0.04224105  0.75000046  1
  O  O13  1  0.87965202  0.54224180  0.75000046  1
  O  O14  1  0.18434217  0.18716298  0.93773910  1
  O  O15  1  0.31565771  0.68716372  0.93773910  1
  Sb  Sb16  1  0.49999988  0.00000000  0.00000000  1
  Sb  Sb17  1  0.00000000  0.50000075  0.00000000  1
  Sb  Sb18  1  0.49999988  0.00000000  0.50000031  1
  Sb  Sb19  1  0.00000000  0.50000075  0.50000031  1
