# generated using pymatgen
data_CuAgO3
_symmetry_space_group_name_H-M   'P 1'
_cell_length_a   5.06562162
_cell_length_b   5.32215823
_cell_length_c   7.58279263
_cell_angle_alpha   90.00000000
_cell_angle_beta   90.00000000
_cell_angle_gamma   90.00000000
_symmetry_Int_Tables_number   1
_chemical_formula_structural   CuAgO3
_chemical_formula_sum   'Cu4 Ag4 O12'
_cell_volume   204.43239096
_cell_formula_units_Z   4
loop_
 _symmetry_equiv_pos_site_id
 _symmetry_equiv_pos_as_xyz
  1  'x, y, z'
loop_
 _atom_site_type_symbol
 _atom_site_label
 _atom_site_symmetry_multiplicity
 _atom_site_fract_x
 _atom_site_fract_y
 _atom_site_fract_z
 _atom_site_occupancy
  Ag  Ag0  1  0.98097734  0.07244429  0.25000024  1
  Ag  Ag1  1  0.51902416  0.57244446  0.25000024  1
  Ag  Ag2  1  0.48097552  0.42755587  0.74999941  1
  Ag  Ag3  1  0.01902432  0.92755604  0.74999941  1
  Cu  Cu4  1  0.49999984  0.00000000  0.00000000  1
  Cu  Cu5  1  0.00000000  0.50000017  0.00000000  1
  Cu  Cu6  1  0.49999984  0.00000000  0.49999917  1
  Cu  Cu7  1  0.00000000  0.50000017  0.49999917  1
  O  O8  1  0.69512693  0.29473006  0.06955617  1
  O  O9  1  0.80487457  0.79473022  0.06955617  1
  O  O10  1  0.13103426  0.43871300  0.25000024  1
  O  O11  1  0.36896558  0.93871317  0.25000024  1
  O  O12  1  0.69512693  0.29473006  0.43044564  1
  O  O13  1  0.80487457  0.79473022  0.43044564  1
  O  O14  1  0.19512511  0.20527011  0.56955534  1
  O  O15  1  0.30487473  0.70527028  0.56955534  1
  O  O16  1  0.63103410  0.06128717  0.74999941  1
  O  O17  1  0.86896542  0.56128733  0.74999941  1
  O  O18  1  0.19512511  0.20527011  0.93044480  1
  O  O19  1  0.30487473  0.70527028  0.93044480  1
