# generated using pymatgen
data_Tl3SbS
_symmetry_space_group_name_H-M   'P 1'
_cell_length_a   5.52556526
_cell_length_b   5.52556526
_cell_length_c   5.52556526
_cell_angle_alpha   90.00000000
_cell_angle_beta   90.00000000
_cell_angle_gamma   90.00000000
_symmetry_Int_Tables_number   1
_chemical_formula_structural   Tl3SbS
_chemical_formula_sum   'Tl3 Sb1 S1'
_cell_volume   168.70584835
_cell_formula_units_Z   1
loop_
 _symmetry_equiv_pos_site_id
 _symmetry_equiv_pos_as_xyz
  1  'x, y, z'
loop_
 _atom_site_type_symbol
 _atom_site_label
 _atom_site_symmetry_multiplicity
 _atom_site_fract_x
 _atom_site_fract_y
 _atom_site_fract_z
 _atom_site_occupancy
  S  S0  1  0.50000000  0.50000000  0.50000000  1
  Sb  Sb1  1  0.00000000  0.00000000  0.00000000  1
  Tl  Tl2  1  0.50000000  0.50000000  0.00000000  1
  Tl  Tl3  1  0.50000000  0.00000000  0.50000000  1
  Tl  Tl4  1  0.00000000  0.50000000  0.50000000  1
