# generated using pymatgen
data_CdBiO3
_symmetry_space_group_name_H-M   'P 1'
_cell_length_a   5.75764653
_cell_length_b   5.91275855
_cell_length_c   8.32113050
_cell_angle_alpha   90.00000000
_cell_angle_beta   90.00000000
_cell_angle_gamma   90.00000000
_symmetry_Int_Tables_number   1
_chemical_formula_structural   CdBiO3
_chemical_formula_sum   'Cd4 Bi4 O12'
_cell_volume   283.28101971
_cell_formula_units_Z   4
loop_
 _symmetry_equiv_pos_site_id
 _symmetry_equiv_pos_as_xyz
  1  'x, y, z'
loop_
 _atom_site_type_symbol
 _atom_site_label
 _atom_site_symmetry_multiplicity
 _atom_site_fract_x
 _atom_site_fract_y
 _atom_site_fract_z
 _atom_site_occupancy
  Bi  Bi0  1  0.49999943  0.00000000  0.00000000  1
  Bi  Bi1  1  0.00000000  0.50000012  0.00000000  1
  Bi  Bi2  1  0.49999943  0.00000000  0.50000057  1
  Bi  Bi3  1  0.00000000  0.50000012  0.50000057  1
  Cd  Cd4  1  0.99086493  0.04827188  0.24999968  1
  Cd  Cd5  1  0.50913511  0.54827201  0.24999968  1
  Cd  Cd6  1  0.49086549  0.45172824  0.75000026  1
  Cd  Cd7  1  0.00913568  0.95172836  0.75000026  1
  O  O8  1  0.68306381  0.31343915  0.07081730  1
  O  O9  1  0.81693622  0.81343927  0.07081730  1
  O  O10  1  0.13245169  0.41604100  0.24999968  1
  O  O11  1  0.36754775  0.91604113  0.24999968  1
  O  O12  1  0.68306381  0.31343915  0.42918327  1
  O  O13  1  0.81693622  0.81343927  0.42918327  1
  O  O14  1  0.18306438  0.18656097  0.57081667  1
  O  O15  1  0.31693505  0.68656110  0.57081667  1
  O  O16  1  0.63245112  0.08395912  0.75000026  1
  O  O17  1  0.86754892  0.58395924  0.75000026  1
  O  O18  1  0.18306438  0.18656097  0.92918264  1
  O  O19  1  0.31693505  0.68656110  0.92918264  1
