# generated using pymatgen
data_BaFeS3
_symmetry_space_group_name_H-M   'P 1'
_cell_length_a   6.57744902
_cell_length_b   6.57744902
_cell_length_c   6.57744918
_cell_angle_alpha   119.99999692
_cell_angle_beta   119.99999692
_cell_angle_gamma   60.00000782
_symmetry_Int_Tables_number   1
_chemical_formula_structural   BaFeS3
_chemical_formula_sum   'Ba2 Fe2 S6'
_cell_volume   201.21369245
_cell_formula_units_Z   2
loop_
 _symmetry_equiv_pos_site_id
 _symmetry_equiv_pos_as_xyz
  1  'x, y, z'
loop_
 _atom_site_type_symbol
 _atom_site_label
 _atom_site_symmetry_multiplicity
 _atom_site_fract_x
 _atom_site_fract_y
 _atom_site_fract_z
 _atom_site_occupancy
  Ba  Ba0  1  0.75000050  0.75000050  0.24999944  1
  Ba  Ba1  1  0.24999899  0.24999899  0.74999684  1
  Fe  Fe2  1  0.00000000  0.00000000  0.00000000  1
  Fe  Fe3  1  0.50000031  0.50000031  0.50000020  1
  S  S4  1  0.74998745  0.25001253  0.25001187  1
  S  S5  1  0.25001253  0.74998745  0.25001187  1
  S  S6  1  0.25001284  0.25001284  0.25001295  1
  S  S7  1  0.74998778  0.74998778  0.74998746  1
  S  S8  1  0.74998809  0.25001316  0.74998853  1
  S  S9  1  0.25001316  0.74998809  0.74998853  1
