# generated using pymatgen
data_TmSnO3
_symmetry_space_group_name_H-M   'P 1'
_cell_length_a   4.09062900
_cell_length_b   4.09062900
_cell_length_c   4.09062900
_cell_angle_alpha   90.00000000
_cell_angle_beta   90.00000000
_cell_angle_gamma   90.00000000
_symmetry_Int_Tables_number   1
_chemical_formula_structural   TmSnO3
_chemical_formula_sum   'Tm1 Sn1 O3'
_cell_volume   68.44949978
_cell_formula_units_Z   1
loop_
 _symmetry_equiv_pos_site_id
 _symmetry_equiv_pos_as_xyz
  1  'x, y, z'
loop_
 _atom_site_type_symbol
 _atom_site_label
 _atom_site_symmetry_multiplicity
 _atom_site_fract_x
 _atom_site_fract_y
 _atom_site_fract_z
 _atom_site_occupancy
  O  O0  1  0.50000134  0.50000134  0.00000000  1
  O  O1  1  0.50000134  0.00000000  0.50000134  1
  O  O2  1  0.00000000  0.50000134  0.50000134  1
  Sn  Sn3  1  0.50000134  0.50000134  0.50000134  1
  Tm  Tm4  1  0.00000000  0.00000000  0.00000000  1
