# generated using pymatgen
data_Rb3PAu
_symmetry_space_group_name_H-M   'P 1'
_cell_length_a   6.42163469
_cell_length_b   6.42163469
_cell_length_c   6.42163469
_cell_angle_alpha   90.00000000
_cell_angle_beta   90.00000000
_cell_angle_gamma   90.00000000
_symmetry_Int_Tables_number   1
_chemical_formula_structural   Rb3PAu
_chemical_formula_sum   'Rb3 P1 Au1'
_cell_volume   264.81146746
_cell_formula_units_Z   1
loop_
 _symmetry_equiv_pos_site_id
 _symmetry_equiv_pos_as_xyz
  1  'x, y, z'
loop_
 _atom_site_type_symbol
 _atom_site_label
 _atom_site_symmetry_multiplicity
 _atom_site_fract_x
 _atom_site_fract_y
 _atom_site_fract_z
 _atom_site_occupancy
  Au  Au0  1  0.00000000  0.00000000  0.00000000  1
  P  P1  1  0.50000000  0.50000000  0.50000000  1
  Rb  Rb2  1  0.50000000  0.50000000  0.00000000  1
  Rb  Rb3  1  0.50000000  0.00000000  0.50000000  1
  Rb  Rb4  1  0.00000000  0.50000000  0.50000000  1
