# generated using pymatgen
data_AgRhO3
_symmetry_space_group_name_H-M   'P 1'
_cell_length_a   5.35719569
_cell_length_b   5.41142569
_cell_length_c   7.61728634
_cell_angle_alpha   90.00000000
_cell_angle_beta   90.00000000
_cell_angle_gamma   90.00000000
_symmetry_Int_Tables_number   1
_chemical_formula_structural   AgRhO3
_chemical_formula_sum   'Ag4 Rh4 O12'
_cell_volume   220.82563643
_cell_formula_units_Z   4
loop_
 _symmetry_equiv_pos_site_id
 _symmetry_equiv_pos_as_xyz
  1  'x, y, z'
loop_
 _atom_site_type_symbol
 _atom_site_label
 _atom_site_symmetry_multiplicity
 _atom_site_fract_x
 _atom_site_fract_y
 _atom_site_fract_z
 _atom_site_occupancy
  Ag  Ag0  1  0.98981637  0.06867137  0.24999979  1
  Ag  Ag1  1  0.51018483  0.56867269  0.24999979  1
  Ag  Ag2  1  0.48981410  0.43132811  0.75000069  1
  Ag  Ag3  1  0.01018443  0.93132758  0.75000069  1
  O  O4  1  0.69542541  0.30109625  0.06429980  1
  O  O5  1  0.80457580  0.80109573  0.06429980  1
  O  O6  1  0.12335745  0.45101054  0.24999979  1
  O  O7  1  0.37664109  0.95101186  0.24999979  1
  O  O8  1  0.69542541  0.30109625  0.43570110  1
  O  O9  1  0.80457580  0.80109573  0.43570110  1
  O  O10  1  0.19542501  0.19890137  0.56429939  1
  O  O11  1  0.30457353  0.69890270  0.56429939  1
  O  O12  1  0.62335599  0.04898894  0.75000069  1
  O  O13  1  0.87664335  0.54899026  0.75000069  1
  O  O14  1  0.19542501  0.19890137  0.93570199  1
  O  O15  1  0.30457353  0.69890270  0.93570199  1
  Rh  Rh16  1  0.49999854  0.00000000  0.00000000  1
  Rh  Rh17  1  0.00000000  0.49999947  0.00000000  1
  Rh  Rh18  1  0.49999854  0.00000000  0.50000090  1
  Rh  Rh19  1  0.00000000  0.49999947  0.50000090  1
