# generated using pymatgen
data_ScCrO3
_symmetry_space_group_name_H-M   'P 1'
_cell_length_a   5.09373300
_cell_length_b   5.41385400
_cell_length_c   7.56056700
_cell_angle_alpha   90.00000000
_cell_angle_beta   90.00000000
_cell_angle_gamma   90.00000000
_symmetry_Int_Tables_number   1
_chemical_formula_structural   ScCrO3
_chemical_formula_sum   'Sc4 Cr4 O12'
_cell_volume   208.49569044
_cell_formula_units_Z   4
loop_
 _symmetry_equiv_pos_site_id
 _symmetry_equiv_pos_as_xyz
  1  'x, y, z'
loop_
 _atom_site_type_symbol
 _atom_site_label
 _atom_site_symmetry_multiplicity
 _atom_site_fract_x
 _atom_site_fract_y
 _atom_site_fract_z
 _atom_site_occupancy
  Sc  Sc0  1  0.97375500  0.06909000  0.25000000  1
  Sc  Sc1  1  0.47375500  0.43091000  0.75000000  1
  Sc  Sc2  1  0.52624500  0.56909000  0.25000000  1
  Sc  Sc3  1  0.02624500  0.93091000  0.75000000  1
  Cr  Cr4  1  0.00000000  0.50000000  0.00000000  1
  Cr  Cr5  1  0.50000000  0.00000000  0.00000000  1
  Cr  Cr6  1  0.50000000  0.00000000  0.50000000  1
  Cr  Cr7  1  0.00000000  0.50000000  0.50000000  1
  O  O8  1  0.68547800  0.30894700  0.42651600  1
  O  O9  1  0.18547800  0.19105300  0.57348400  1
  O  O10  1  0.81452200  0.80894700  0.07348400  1
  O  O11  1  0.31452200  0.69105300  0.92651600  1
  O  O12  1  0.31452200  0.69105300  0.57348400  1
  O  O13  1  0.81452200  0.80894700  0.42651600  1
  O  O14  1  0.18547800  0.19105300  0.92651600  1
  O  O15  1  0.68547800  0.30894700  0.07348400  1
  O  O16  1  0.14163200  0.43623700  0.25000000  1
  O  O17  1  0.64163200  0.06376300  0.75000000  1
  O  O18  1  0.35836800  0.93623700  0.25000000  1
  O  O19  1  0.85836800  0.56376300  0.75000000  1
