# generated using pymatgen
data_TiBP3
_symmetry_space_group_name_H-M   'P 1'
_cell_length_a   4.67258900
_cell_length_b   4.67258900
_cell_length_c   4.67465000
_cell_angle_alpha   90.00000000
_cell_angle_beta   90.00000000
_cell_angle_gamma   90.00000000
_symmetry_Int_Tables_number   1
_chemical_formula_structural   TiBP3
_chemical_formula_sum   'Ti1 B1 P3'
_cell_volume   102.06204465
_cell_formula_units_Z   1
loop_
 _symmetry_equiv_pos_site_id
 _symmetry_equiv_pos_as_xyz
  1  'x, y, z'
loop_
 _atom_site_type_symbol
 _atom_site_label
 _atom_site_symmetry_multiplicity
 _atom_site_fract_x
 _atom_site_fract_y
 _atom_site_fract_z
 _atom_site_occupancy
  B  B0  1  0.00000000  0.00000000  0.00311988  1
  P  P1  1  0.50000000  0.50000000  0.99611736  1
  P  P2  1  0.50000000  0.00000000  0.49083045  1
  P  P3  1  0.00000000  0.50000000  0.49083045  1
  Ti  Ti4  1  0.50000000  0.50000000  0.49710185  1
