# generated using pymatgen
data_YPbO3
_symmetry_space_group_name_H-M   'P 1'
_cell_length_a   4.22112420
_cell_length_b   4.22112420
_cell_length_c   4.62302449
_cell_angle_alpha   90.00000000
_cell_angle_beta   90.00000000
_cell_angle_gamma   90.00000000
_symmetry_Int_Tables_number   1
_chemical_formula_structural   YPbO3
_chemical_formula_sum   'Y1 Pb1 O3'
_cell_volume   82.37253949
_cell_formula_units_Z   1
loop_
 _symmetry_equiv_pos_site_id
 _symmetry_equiv_pos_as_xyz
  1  'x, y, z'
loop_
 _atom_site_type_symbol
 _atom_site_label
 _atom_site_symmetry_multiplicity
 _atom_site_fract_x
 _atom_site_fract_y
 _atom_site_fract_z
 _atom_site_occupancy
  O  O0  1  0.49999950  0.49999950  0.07213243  1
  O  O1  1  0.49999950  0.00000000  0.67004836  1
  O  O2  1  0.00000000  0.49999950  0.67004836  1
  Pb  Pb3  1  0.00000000  0.00000000  0.94353047  1
  Y  Y4  1  0.49999950  0.49999950  0.54423895  1
