# generated using pymatgen
data_Gd3PRh
_symmetry_space_group_name_H-M   'P 1'
_cell_length_a   5.22957784
_cell_length_b   5.22957784
_cell_length_c   5.22957784
_cell_angle_alpha   90.00000000
_cell_angle_beta   90.00000000
_cell_angle_gamma   90.00000000
_symmetry_Int_Tables_number   1
_chemical_formula_structural   Gd3PRh
_chemical_formula_sum   'Gd3 P1 Rh1'
_cell_volume   143.02102806
_cell_formula_units_Z   1
loop_
 _symmetry_equiv_pos_site_id
 _symmetry_equiv_pos_as_xyz
  1  'x, y, z'
loop_
 _atom_site_type_symbol
 _atom_site_label
 _atom_site_symmetry_multiplicity
 _atom_site_fract_x
 _atom_site_fract_y
 _atom_site_fract_z
 _atom_site_occupancy
  Gd  Gd0  1  0.50000000  0.50000000  0.00000000  1
  Gd  Gd1  1  0.50000000  0.00000000  0.50000000  1
  Gd  Gd2  1  0.00000000  0.50000000  0.50000000  1
  P  P3  1  0.50000000  0.50000000  0.50000000  1
  Rh  Rh4  1  0.00000000  0.00000000  0.00000000  1
