# generated using pymatgen
data_Ac3MnC
_symmetry_space_group_name_H-M   'P 1'
_cell_length_a   5.35331512
_cell_length_b   5.35331512
_cell_length_c   5.35331512
_cell_angle_alpha   90.00000000
_cell_angle_beta   90.00000000
_cell_angle_gamma   90.00000000
_symmetry_Int_Tables_number   1
_chemical_formula_structural   Ac3MnC
_chemical_formula_sum   'Ac3 Mn1 C1'
_cell_volume   153.41521258
_cell_formula_units_Z   1
loop_
 _symmetry_equiv_pos_site_id
 _symmetry_equiv_pos_as_xyz
  1  'x, y, z'
loop_
 _atom_site_type_symbol
 _atom_site_label
 _atom_site_symmetry_multiplicity
 _atom_site_fract_x
 _atom_site_fract_y
 _atom_site_fract_z
 _atom_site_occupancy
  Ac  Ac0  1  0.50000000  0.50000000  0.00000000  1
  Ac  Ac1  1  0.50000000  0.00000000  0.50000000  1
  Ac  Ac2  1  0.00000000  0.50000000  0.50000000  1
  C  C3  1  0.50000000  0.50000000  0.50000000  1
  Mn  Mn4  1  0.00000000  0.00000000  0.00000000  1
