# generated using pymatgen
data_KBaCl3
_symmetry_space_group_name_H-M   'P 1'
_cell_length_a   8.21313270
_cell_length_b   11.10951705
_cell_length_c   7.73592401
_cell_angle_alpha   90.00000000
_cell_angle_beta   90.00000000
_cell_angle_gamma   90.00000000
_symmetry_Int_Tables_number   1
_chemical_formula_structural   KBaCl3
_chemical_formula_sum   'K4 Ba4 Cl12'
_cell_volume   705.85616980
_cell_formula_units_Z   4
loop_
 _symmetry_equiv_pos_site_id
 _symmetry_equiv_pos_as_xyz
  1  'x, y, z'
loop_
 _atom_site_type_symbol
 _atom_site_label
 _atom_site_symmetry_multiplicity
 _atom_site_fract_x
 _atom_site_fract_y
 _atom_site_fract_z
 _atom_site_occupancy
  Ba  Ba0  1  0.00000000  0.00000000  0.50000000  1
  Ba  Ba1  1  0.00000000  0.50000000  0.50000000  1
  Ba  Ba2  1  0.50000000  0.00000000  0.00000000  1
  Ba  Ba3  1  0.50000000  0.50000000  0.00000000  1
  Cl  Cl4  1  0.07937266  0.25000000  0.65181910  1
  Cl  Cl5  1  0.30968307  0.57957965  0.68363430  1
  Cl  Cl6  1  0.30968307  0.92042035  0.68363430  1
  Cl  Cl7  1  0.80968307  0.57957965  0.81636570  1
  Cl  Cl8  1  0.80968307  0.92042035  0.81636570  1
  Cl  Cl9  1  0.57937266  0.25000000  0.84818090  1
  Cl  Cl10  1  0.42062734  0.75000000  0.15181910  1
  Cl  Cl11  1  0.19031693  0.07957965  0.18363430  1
  Cl  Cl12  1  0.19031693  0.42042035  0.18363430  1
  Cl  Cl13  1  0.69031693  0.07957965  0.31636570  1
  Cl  Cl14  1  0.69031693  0.42042035  0.31636570  1
  Cl  Cl15  1  0.92062734  0.75000000  0.34818090  1
  K  K16  1  0.57513720  0.75000000  0.52400760  1
  K  K17  1  0.07513720  0.75000000  0.97599240  1
  K  K18  1  0.92486280  0.25000000  0.02400760  1
  K  K19  1  0.42486280  0.25000000  0.47599240  1
