# generated using pymatgen
data_Ca3CSe
_symmetry_space_group_name_H-M   'P 1'
_cell_length_a   4.94916120
_cell_length_b   4.95711590
_cell_length_c   4.99607184
_cell_angle_alpha   89.21671097
_cell_angle_beta   89.85539337
_cell_angle_gamma   89.93261763
_symmetry_Int_Tables_number   1
_chemical_formula_structural   Ca3CSe
_chemical_formula_sum   'Ca3 C1 Se1'
_cell_volume   122.55953257
_cell_formula_units_Z   1
loop_
 _symmetry_equiv_pos_site_id
 _symmetry_equiv_pos_as_xyz
  1  'x, y, z'
loop_
 _atom_site_type_symbol
 _atom_site_label
 _atom_site_symmetry_multiplicity
 _atom_site_fract_x
 _atom_site_fract_y
 _atom_site_fract_z
 _atom_site_occupancy
  C  C0  1  0.53109336  0.17584984  0.96840491  1
  Ca  Ca1  1  0.53317659  0.19198684  0.48106974  1
  Ca  Ca2  1  0.03201019  0.18416497  0.99329212  1
  Ca  Ca3  1  0.53334458  0.68097748  0.99643490  1
  Se  Se4  1  0.02695688  0.65154006  0.42257799  1
