# generated using pymatgen
data_KSrF3
_symmetry_space_group_name_H-M   'P 1'
_cell_length_a   6.12891300
_cell_length_b   8.57205000
_cell_length_c   6.02128300
_cell_angle_alpha   90.00000000
_cell_angle_beta   90.00000000
_cell_angle_gamma   90.00000000
_symmetry_Int_Tables_number   1
_chemical_formula_structural   KSrF3
_chemical_formula_sum   'K4 Sr4 F12'
_cell_volume   316.34224448
_cell_formula_units_Z   4
loop_
 _symmetry_equiv_pos_site_id
 _symmetry_equiv_pos_as_xyz
  1  'x, y, z'
loop_
 _atom_site_type_symbol
 _atom_site_label
 _atom_site_symmetry_multiplicity
 _atom_site_fract_x
 _atom_site_fract_y
 _atom_site_fract_z
 _atom_site_occupancy
  F  F0  1  0.52792339  0.25000000  0.58864237  1
  F  F1  1  0.79367196  0.54607301  0.70488005  1
  F  F2  1  0.79367196  0.95392699  0.70488005  1
  F  F3  1  0.29367196  0.54607301  0.79511995  1
  F  F4  1  0.29367196  0.95392699  0.79511995  1
  F  F5  1  0.02792339  0.25000000  0.91135763  1
  F  F6  1  0.97207661  0.75000000  0.08864237  1
  F  F7  1  0.70632804  0.04607301  0.20488005  1
  F  F8  1  0.70632804  0.45392699  0.20488005  1
  F  F9  1  0.20632804  0.04607301  0.29511995  1
  F  F10  1  0.20632804  0.45392699  0.29511995  1
  F  F11  1  0.47207661  0.75000000  0.41135763  1
  K  K12  1  0.04268185  0.75000000  0.51078355  1
  K  K13  1  0.54268185  0.75000000  0.98921645  1
  K  K14  1  0.45731815  0.25000000  0.01078355  1
  K  K15  1  0.95731815  0.25000000  0.48921645  1
  Sr  Sr16  1  0.50000000  0.50000000  0.50000000  1
  Sr  Sr17  1  0.50000000  0.00000000  0.50000000  1
  Sr  Sr18  1  0.00000000  0.50000000  0.00000000  1
  Sr  Sr19  1  0.00000000  0.00000000  0.00000000  1
