# generated using pymatgen
data_PrGe3P
_symmetry_space_group_name_H-M   'P 1'
_cell_length_a   4.83936976
_cell_length_b   4.83936976
_cell_length_c   4.83936976
_cell_angle_alpha   90.00000000
_cell_angle_beta   90.00000000
_cell_angle_gamma   90.00000000
_symmetry_Int_Tables_number   1
_chemical_formula_structural   PrGe3P
_chemical_formula_sum   'Pr1 Ge3 P1'
_cell_volume   113.33561859
_cell_formula_units_Z   1
loop_
 _symmetry_equiv_pos_site_id
 _symmetry_equiv_pos_as_xyz
  1  'x, y, z'
loop_
 _atom_site_type_symbol
 _atom_site_label
 _atom_site_symmetry_multiplicity
 _atom_site_fract_x
 _atom_site_fract_y
 _atom_site_fract_z
 _atom_site_occupancy
  Ge  Ge0  1  0.50000000  0.50000000  0.00000000  1
  Ge  Ge1  1  0.50000000  0.00000000  0.50000000  1
  Ge  Ge2  1  0.00000000  0.50000000  0.50000000  1
  P  P3  1  0.50000000  0.50000000  0.50000000  1
  Pr  Pr4  1  0.00000000  0.00000000  0.00000000  1
