# generated using pymatgen
data_Pr3NdI
_symmetry_space_group_name_H-M   'P 1'
_cell_length_a   5.91642756
_cell_length_b   5.91642756
_cell_length_c   5.91642756
_cell_angle_alpha   90.00000000
_cell_angle_beta   90.00000000
_cell_angle_gamma   90.00000000
_symmetry_Int_Tables_number   1
_chemical_formula_structural   Pr3NdI
_chemical_formula_sum   'Pr3 Nd1 I1'
_cell_volume   207.09931134
_cell_formula_units_Z   1
loop_
 _symmetry_equiv_pos_site_id
 _symmetry_equiv_pos_as_xyz
  1  'x, y, z'
loop_
 _atom_site_type_symbol
 _atom_site_label
 _atom_site_symmetry_multiplicity
 _atom_site_fract_x
 _atom_site_fract_y
 _atom_site_fract_z
 _atom_site_occupancy
  I  I0  1  0.00000000  0.00000000  0.00000000  1
  Nd  Nd1  1  0.50000000  0.50000000  0.50000000  1
  Pr  Pr2  1  0.00000000  0.00000000  0.50000000  1
  Pr  Pr3  1  0.00000000  0.50000000  0.00000000  1
  Pr  Pr4  1  0.50000000  0.00000000  0.00000000  1
