# generated using pymatgen
data_BaAlS3
_symmetry_space_group_name_H-M   'P 1'
_cell_length_a   6.79341763
_cell_length_b   6.79341763
_cell_length_c   6.79341601
_cell_angle_alpha   119.99999209
_cell_angle_beta   119.99999209
_cell_angle_gamma   90.00002741
_symmetry_Int_Tables_number   1
_chemical_formula_structural   BaAlS3
_chemical_formula_sum   'Ba2 Al2 S6'
_cell_volume   221.69190768
_cell_formula_units_Z   2
loop_
 _symmetry_equiv_pos_site_id
 _symmetry_equiv_pos_as_xyz
  1  'x, y, z'
loop_
 _atom_site_type_symbol
 _atom_site_label
 _atom_site_symmetry_multiplicity
 _atom_site_fract_x
 _atom_site_fract_y
 _atom_site_fract_z
 _atom_site_occupancy
  Al  Al0  1  0.00000000  0.00000000  0.00000000  1
  Al  Al1  1  0.49999971  0.49999971  0.00000000  1
  Ba  Ba2  1  0.75000155  0.25000022  0.50000265  1
  Ba  Ba3  1  0.25000022  0.75000155  0.50000265  1
  S  S4  1  0.24998730  0.75001153  0.00000000  1
  S  S5  1  0.75001089  0.75001089  0.00000000  1
  S  S6  1  0.24998852  0.24998852  0.00000000  1
  S  S7  1  0.75001153  0.24998730  0.00000000  1
  S  S8  1  0.24998852  0.24998852  0.49997763  1
  S  S9  1  0.75001089  0.75001089  0.50002090  1
