# generated using pymatgen
data_MnPCl3
_symmetry_space_group_name_H-M   'P 1'
_cell_length_a   7.02265500
_cell_length_b   6.55659600
_cell_length_c   11.05899000
_cell_angle_alpha   90.00000000
_cell_angle_beta   90.00000000
_cell_angle_gamma   90.00000000
_symmetry_Int_Tables_number   1
_chemical_formula_structural   MnPCl3
_chemical_formula_sum   'Mn4 P4 Cl12'
_cell_volume   509.20800605
_cell_formula_units_Z   4
loop_
 _symmetry_equiv_pos_site_id
 _symmetry_equiv_pos_as_xyz
  1  'x, y, z'
loop_
 _atom_site_type_symbol
 _atom_site_label
 _atom_site_symmetry_multiplicity
 _atom_site_fract_x
 _atom_site_fract_y
 _atom_site_fract_z
 _atom_site_occupancy
  Cl  Cl0  1  0.50181599  0.89649573  0.25000000  1
  Cl  Cl1  1  0.99818401  0.39649573  0.75000000  1
  Cl  Cl2  1  0.49818401  0.10350427  0.75000000  1
  Cl  Cl3  1  0.00181599  0.60350427  0.25000000  1
  Cl  Cl4  1  0.28793061  0.28866386  0.04633800  1
  Cl  Cl5  1  0.21206939  0.78866386  0.95366200  1
  Cl  Cl6  1  0.71206939  0.71133614  0.54633800  1
  Cl  Cl7  1  0.78793061  0.21133614  0.45366200  1
  Cl  Cl8  1  0.71206939  0.71133614  0.95366200  1
  Cl  Cl9  1  0.78793061  0.21133614  0.04633800  1
  Cl  Cl10  1  0.28793061  0.28866386  0.45366200  1
  Cl  Cl11  1  0.21206939  0.78866386  0.54633800  1
  Mn  Mn12  1  0.00000000  0.50000000  0.00000000  1
  Mn  Mn13  1  0.50000000  -0.00000000  0.00000000  1
  Mn  Mn14  1  -0.00000000  0.50000000  0.50000000  1
  Mn  Mn15  1  0.50000000  -0.00000000  0.50000000  1
  P  P16  1  0.00184440  0.92328582  0.25000000  1
  P  P17  1  0.49815560  0.42328582  0.75000000  1
  P  P18  1  0.99815560  0.07671418  0.75000000  1
  P  P19  1  0.50184440  0.57671418  0.25000000  1
