# generated using pymatgen
data_CoP3Se
_symmetry_space_group_name_H-M   'P 1'
_cell_length_a   5.60165000
_cell_length_b   5.71303800
_cell_length_c   9.98079400
_cell_angle_alpha   90.00000000
_cell_angle_beta   90.00000000
_cell_angle_gamma   90.00000000
_symmetry_Int_Tables_number   1
_chemical_formula_structural   CoP3Se
_chemical_formula_sum   'Co4 P12 Se4'
_cell_volume   319.40975428
_cell_formula_units_Z   4
loop_
 _symmetry_equiv_pos_site_id
 _symmetry_equiv_pos_as_xyz
  1  'x, y, z'
loop_
 _atom_site_type_symbol
 _atom_site_label
 _atom_site_symmetry_multiplicity
 _atom_site_fract_x
 _atom_site_fract_y
 _atom_site_fract_z
 _atom_site_occupancy
  Co  Co0  1  0.50000000  0.00000000  0.00000000  1
  Co  Co1  1  0.00000000  0.50000000  0.00000000  1
  Co  Co2  1  0.50000000  0.00000000  0.50000000  1
  Co  Co3  1  0.00000000  0.50000000  0.50000000  1
  P  P4  1  0.61215584  0.04994885  0.75000000  1
  P  P5  1  0.11215584  0.45005115  0.25000000  1
  P  P6  1  0.38784416  0.95005115  0.25000000  1
  P  P7  1  0.88784416  0.54994885  0.75000000  1
  P  P8  1  0.13629928  0.13973487  0.97287745  1
  P  P9  1  0.63629928  0.36026513  0.02712255  1
  P  P10  1  0.86370072  0.86026513  0.47287745  1
  P  P11  1  0.36370072  0.63973487  0.52712255  1
  P  P12  1  0.86370072  0.86026513  0.02712255  1
  P  P13  1  0.36370072  0.63973487  0.97287745  1
  P  P14  1  0.13629928  0.13973487  0.52712255  1
  P  P15  1  0.63629928  0.36026513  0.47287745  1
  Se  Se16  1  0.03663536  0.99086263  0.75000000  1
  Se  Se17  1  0.53663536  0.50913737  0.25000000  1
  Se  Se18  1  0.96336464  0.00913737  0.25000000  1
  Se  Se19  1  0.46336464  0.49086263  0.75000000  1
