# generated using pymatgen
data_LaCoO3
_symmetry_space_group_name_H-M   'P 1'
_cell_length_a   5.49830883
_cell_length_b   5.59082109
_cell_length_c   7.79286777
_cell_angle_alpha   89.72569796
_cell_angle_beta   91.74818082
_cell_angle_gamma   89.55862809
_symmetry_Int_Tables_number   1
_chemical_formula_structural   LaCoO3
_chemical_formula_sum   'La4 Co4 O12'
_cell_volume   239.43160538
_cell_formula_units_Z   4
loop_
 _symmetry_equiv_pos_site_id
 _symmetry_equiv_pos_as_xyz
  1  'x, y, z'
loop_
 _atom_site_type_symbol
 _atom_site_label
 _atom_site_symmetry_multiplicity
 _atom_site_fract_x
 _atom_site_fract_y
 _atom_site_fract_z
 _atom_site_occupancy
  La  La0  1  0.24832000  0.75324100  0.50301800  1
  La  La1  1  0.74993500  0.24621500  0.99924400  1
  La  La2  1  0.75006600  0.25378400  0.50075900  1
  La  La3  1  0.25168100  0.74675900  0.99698000  1
  Co  Co4  1  0.25000000  0.25000000  0.75000000  1
  Co  Co5  1  0.75000000  0.75000000  0.75000000  1
  Co  Co6  1  0.75000000  0.75000000  0.25000000  1
  Co  Co7  1  0.25000000  0.25000000  0.25000000  1
  O  O8  1  0.95756000  0.04248900  0.28306900  1
  O  O9  1  0.46305000  0.52135500  0.78422500  1
  O  O10  1  0.03695000  0.97864500  0.71577500  1
  O  O11  1  0.54244000  0.45751200  0.21693200  1
  O  O12  1  0.75262200  0.68865800  0.49493700  1
  O  O13  1  0.25812700  0.17771500  0.99009800  1
  O  O14  1  0.24187300  0.32228500  0.50990300  1
  O  O15  1  0.74737800  0.81134200  0.00506300  1
  O  O16  1  0.52449000  0.03930300  0.71487300  1
  O  O17  1  0.04934000  0.53170000  0.21777600  1
  O  O18  1  0.45066100  0.96830100  0.28222400  1
  O  O19  1  0.97551000  0.46069600  0.78512700  1
