# generated using pymatgen
data_LaCrP3
_symmetry_space_group_name_H-M   'P 1'
_cell_length_a   6.99602600
_cell_length_b   6.05741800
_cell_length_c   8.97602800
_cell_angle_alpha   90.00000000
_cell_angle_beta   90.00000000
_cell_angle_gamma   90.00000000
_symmetry_Int_Tables_number   1
_chemical_formula_structural   LaCrP3
_chemical_formula_sum   'La4 Cr4 P12'
_cell_volume   380.38480248
_cell_formula_units_Z   4
loop_
 _symmetry_equiv_pos_site_id
 _symmetry_equiv_pos_as_xyz
  1  'x, y, z'
loop_
 _atom_site_type_symbol
 _atom_site_label
 _atom_site_symmetry_multiplicity
 _atom_site_fract_x
 _atom_site_fract_y
 _atom_site_fract_z
 _atom_site_occupancy
  Cr  Cr0  1  0.00000000  0.50000000  0.00000000  1
  Cr  Cr1  1  0.50000000  -0.00000000  0.00000000  1
  Cr  Cr2  1  0.00000000  0.50000000  0.50000000  1
  Cr  Cr3  1  0.50000000  0.00000000  0.50000000  1
  La  La4  1  0.90600906  0.95633966  0.25000000  1
  La  La5  1  0.59399094  0.45633966  0.75000000  1
  La  La6  1  0.09399094  0.04366034  0.75000000  1
  La  La7  1  0.40600906  0.54366034  0.25000000  1
  P  P8  1  0.48697637  0.05640583  0.25000000  1
  P  P9  1  0.01302363  0.55640583  0.75000000  1
  P  P10  1  0.51302363  0.94359417  0.75000000  1
  P  P11  1  0.98697637  0.44359417  0.25000000  1
  P  P12  1  0.70287125  0.67915515  0.03733114  1
  P  P13  1  0.79712875  0.17915515  0.96266886  1
  P  P14  1  0.29712875  0.32084485  0.53733114  1
  P  P15  1  0.20287125  0.82084485  0.46266886  1
  P  P16  1  0.29712875  0.32084485  0.96266886  1
  P  P17  1  0.20287125  0.82084485  0.03733114  1
  P  P18  1  0.70287125  0.67915515  0.46266886  1
  P  P19  1  0.79712875  0.17915515  0.53733114  1
