# generated using pymatgen
data_GaPPb3
_symmetry_space_group_name_H-M   'P 1'
_cell_length_a   7.34844800
_cell_length_b   6.91377300
_cell_length_c   12.19609000
_cell_angle_alpha   90.00000000
_cell_angle_beta   90.00000000
_cell_angle_gamma   90.00000000
_symmetry_Int_Tables_number   1
_chemical_formula_structural   GaPPb3
_chemical_formula_sum   'Ga4 P4 Pb12'
_cell_volume   619.62846726
_cell_formula_units_Z   4
loop_
 _symmetry_equiv_pos_site_id
 _symmetry_equiv_pos_as_xyz
  1  'x, y, z'
loop_
 _atom_site_type_symbol
 _atom_site_label
 _atom_site_symmetry_multiplicity
 _atom_site_fract_x
 _atom_site_fract_y
 _atom_site_fract_z
 _atom_site_occupancy
  Ga  Ga0  1  0.52569970  0.95429615  0.25056979  1
  Ga  Ga1  1  0.47430030  0.04570385  0.75056979  1
  Ga  Ga2  1  0.02569970  0.54570385  0.25056979  1
  Ga  Ga3  1  0.97430030  0.45429615  0.75056979  1
  P  P4  1  0.06497210  0.94448791  0.99032950  1
  P  P5  1  0.93502790  0.05551209  0.49032950  1
  P  P6  1  0.56497210  0.55551209  0.99032950  1
  P  P7  1  0.43502790  0.44448791  0.49032950  1
  Pb  Pb8  1  0.44171240  0.92368084  0.02055643  1
  Pb  Pb9  1  0.55828760  0.07631915  0.52055643  1
  Pb  Pb10  1  0.94171240  0.57631916  0.02055643  1
  Pb  Pb11  1  0.05828760  0.42368084  0.52055643  1
  Pb  Pb12  1  0.38582176  0.35507765  0.26742959  1
  Pb  Pb13  1  0.61417824  0.64492235  0.76742959  1
  Pb  Pb14  1  0.88582176  0.14492235  0.26742959  1
  Pb  Pb15  1  0.11417824  0.85507765  0.76742959  1
  Pb  Pb16  1  0.29238799  0.34265740  0.88781469  1
  Pb  Pb17  1  0.70761201  0.65734260  0.38781469  1
  Pb  Pb18  1  0.79238799  0.15734260  0.88781469  1
  Pb  Pb19  1  0.20761201  0.84265740  0.38781469  1
