# generated using pymatgen
data_SrHfP3
_symmetry_space_group_name_H-M   'P 1'
_cell_length_a   8.04063000
_cell_length_b   6.11835400
_cell_length_c   10.11218000
_cell_angle_alpha   90.00000000
_cell_angle_beta   90.00000000
_cell_angle_gamma   90.00000000
_symmetry_Int_Tables_number   1
_chemical_formula_structural   SrHfP3
_chemical_formula_sum   'Sr4 Hf4 P12'
_cell_volume   497.47294953
_cell_formula_units_Z   4
loop_
 _symmetry_equiv_pos_site_id
 _symmetry_equiv_pos_as_xyz
  1  'x, y, z'
loop_
 _atom_site_type_symbol
 _atom_site_label
 _atom_site_symmetry_multiplicity
 _atom_site_fract_x
 _atom_site_fract_y
 _atom_site_fract_z
 _atom_site_occupancy
  Hf  Hf0  1  0.50000000  -0.00000000  0.00000000  1
  Hf  Hf1  1  -0.00000000  0.50000000  0.00000000  1
  Hf  Hf2  1  0.50000000  0.00000000  0.50000000  1
  Hf  Hf3  1  0.00000000  0.50000000  0.50000000  1
  P  P4  1  0.25279108  0.25592024  0.98722530  1
  P  P5  1  0.75279108  0.24407976  0.01277471  1
  P  P6  1  0.74720892  0.74407976  0.48722530  1
  P  P7  1  0.24720892  0.75592024  0.51277470  1
  P  P8  1  0.74720892  0.74407976  0.01277471  1
  P  P9  1  0.24720892  0.75592024  0.98722530  1
  P  P10  1  0.25279108  0.25592024  0.51277470  1
  P  P11  1  0.75279108  0.24407976  0.48722530  1
  P  P12  1  0.97574784  0.51550436  0.75000000  1
  P  P13  1  0.47574784  0.98449564  0.25000000  1
  P  P14  1  0.02425216  0.48449564  0.25000000  1
  P  P15  1  0.52425216  0.01550436  0.75000000  1
  Sr  Sr16  1  -0.00138746  0.01639665  0.75000000  1
  Sr  Sr17  1  0.49861254  0.48360335  0.25000000  1
  Sr  Sr18  1  0.00138746  0.98360335  0.25000000  1
  Sr  Sr19  1  0.50138746  0.51639665  0.75000000  1
