# generated using pymatgen
data_LaMnP3
_symmetry_space_group_name_H-M   'P 1'
_cell_length_a   6.93847800
_cell_length_b   6.03295600
_cell_length_c   8.80147900
_cell_angle_alpha   90.00000000
_cell_angle_beta   90.00000000
_cell_angle_gamma   90.00000000
_symmetry_Int_Tables_number   1
_chemical_formula_structural   LaMnP3
_chemical_formula_sum   'La4 Mn4 P12'
_cell_volume   368.42579608
_cell_formula_units_Z   4
loop_
 _symmetry_equiv_pos_site_id
 _symmetry_equiv_pos_as_xyz
  1  'x, y, z'
loop_
 _atom_site_type_symbol
 _atom_site_label
 _atom_site_symmetry_multiplicity
 _atom_site_fract_x
 _atom_site_fract_y
 _atom_site_fract_z
 _atom_site_occupancy
  La  La0  1  0.40693047  0.03684946  0.25000000  1
  La  La1  1  0.09306953  0.53684946  0.75000000  1
  La  La2  1  0.59306953  0.96315054  0.75000000  1
  La  La3  1  0.90693047  0.46315054  0.25000000  1
  Mn  Mn4  1  0.00000000  0.00000000  0.00000000  1
  Mn  Mn5  1  0.50000000  0.50000000  0.00000000  1
  Mn  Mn6  1  0.00000000  0.00000000  0.50000000  1
  Mn  Mn7  1  0.50000000  0.50000000  0.50000000  1
  P  P8  1  0.97467168  0.94932014  0.25000000  1
  P  P9  1  0.52532832  0.44932014  0.75000000  1
  P  P10  1  0.02532832  0.05067986  0.75000000  1
  P  P11  1  0.47467168  0.55067986  0.25000000  1
  P  P12  1  0.70674549  0.17375172  0.04148830  1
  P  P13  1  0.79325451  0.67375172  0.95851170  1
  P  P14  1  0.29325451  0.82624828  0.54148830  1
  P  P15  1  0.20674549  0.32624828  0.45851170  1
  P  P16  1  0.29325451  0.82624828  0.95851170  1
  P  P17  1  0.20674549  0.32624828  0.04148830  1
  P  P18  1  0.70674549  0.17375172  0.45851170  1
  P  P19  1  0.79325451  0.67375172  0.54148830  1
