# generated using pymatgen
data_LaVP3
_symmetry_space_group_name_H-M   'P 1'
_cell_length_a   6.24149300
_cell_length_b   6.83262100
_cell_length_c   9.21678200
_cell_angle_alpha   90.00000000
_cell_angle_beta   90.00000000
_cell_angle_gamma   90.00000000
_symmetry_Int_Tables_number   1
_chemical_formula_structural   LaVP3
_chemical_formula_sum   'La4 V4 P12'
_cell_volume   393.05663760
_cell_formula_units_Z   4
loop_
 _symmetry_equiv_pos_site_id
 _symmetry_equiv_pos_as_xyz
  1  'x, y, z'
loop_
 _atom_site_type_symbol
 _atom_site_label
 _atom_site_symmetry_multiplicity
 _atom_site_fract_x
 _atom_site_fract_y
 _atom_site_fract_z
 _atom_site_occupancy
  La  La0  1  0.04212424  0.09732038  0.75000000  1
  La  La1  1  0.54212424  0.40267962  0.25000000  1
  La  La2  1  0.95787576  0.90267962  0.25000000  1
  La  La3  1  0.45787576  0.59732038  0.75000000  1
  P  P4  1  0.94327647  0.52390944  0.75000000  1
  P  P5  1  0.44327647  0.97609056  0.25000000  1
  P  P6  1  0.05672353  0.47609056  0.25000000  1
  P  P7  1  0.55672353  0.02390944  0.75000000  1
  P  P8  1  0.81514334  0.19765747  0.47008695  1
  P  P9  1  0.31514334  0.30234253  0.52991305  1
  P  P10  1  0.18485666  0.80234253  0.97008695  1
  P  P11  1  0.68485666  0.69765747  0.02991306  1
  P  P12  1  0.18485666  0.80234253  0.52991305  1
  P  P13  1  0.68485666  0.69765747  0.47008695  1
  P  P14  1  0.81514334  0.19765747  0.02991306  1
  P  P15  1  0.31514334  0.30234253  0.97008695  1
  V  V16  1  0.50000000  0.00000000  0.00000000  1
  V  V17  1  0.00000000  0.50000000  0.00000000  1
  V  V18  1  0.50000000  -0.00000000  0.50000000  1
  V  V19  1  0.00000000  0.50000000  0.50000000  1
