# generated using pymatgen
data_SrNbO3
_symmetry_space_group_name_H-M   'P 1'
_cell_length_a   5.75165400
_cell_length_b   5.75490600
_cell_length_c   8.19662000
_cell_angle_alpha   90.00000000
_cell_angle_beta   90.00000000
_cell_angle_gamma   90.00000000
_symmetry_Int_Tables_number   1
_chemical_formula_structural   SrNbO3
_chemical_formula_sum   'Sr4 Nb4 O12'
_cell_volume   271.30999177
_cell_formula_units_Z   4
loop_
 _symmetry_equiv_pos_site_id
 _symmetry_equiv_pos_as_xyz
  1  'x, y, z'
loop_
 _atom_site_type_symbol
 _atom_site_label
 _atom_site_symmetry_multiplicity
 _atom_site_fract_x
 _atom_site_fract_y
 _atom_site_fract_z
 _atom_site_occupancy
  Sr  Sr0  1  0.00026200  0.98253000  0.75000000  1
  Sr  Sr1  1  0.49973800  0.48253000  0.75000000  1
  Sr  Sr2  1  0.50026200  0.51747000  0.25000000  1
  Sr  Sr3  1  0.99973800  0.01747000  0.25000000  1
  Nb  Nb4  1  0.50000000  0.00000000  0.50000000  1
  Nb  Nb5  1  0.00000000  0.50000000  0.00000000  1
  Nb  Nb6  1  0.00000000  0.50000000  0.50000000  1
  Nb  Nb7  1  0.50000000  0.00000000  0.00000000  1
  O  O8  1  0.71892700  0.28088200  0.48110200  1
  O  O9  1  0.78107300  0.78088200  0.01889800  1
  O  O10  1  0.21892700  0.21911800  0.51889800  1
  O  O11  1  0.28107300  0.71911800  0.98110200  1
  O  O12  1  0.28107300  0.71911800  0.51889800  1
  O  O13  1  0.21892700  0.21911800  0.98110200  1
  O  O14  1  0.78107300  0.78088200  0.48110200  1
  O  O15  1  0.71892700  0.28088200  0.01889800  1
  O  O16  1  0.03769200  0.49428700  0.25000000  1
  O  O17  1  0.46230800  0.99428700  0.25000000  1
  O  O18  1  0.53769200  0.00571300  0.75000000  1
  O  O19  1  0.96230800  0.50571300  0.75000000  1
