# generated using pymatgen
data_MgSiP3
_symmetry_space_group_name_H-M   'P 1'
_cell_length_a   6.92611600
_cell_length_b   6.73426000
_cell_length_c   7.63236300
_cell_angle_alpha   90.00000000
_cell_angle_beta   90.00000000
_cell_angle_gamma   90.00000000
_symmetry_Int_Tables_number   1
_chemical_formula_structural   MgSiP3
_chemical_formula_sum   'Mg4 Si4 P12'
_cell_volume   355.99070475
_cell_formula_units_Z   4
loop_
 _symmetry_equiv_pos_site_id
 _symmetry_equiv_pos_as_xyz
  1  'x, y, z'
loop_
 _atom_site_type_symbol
 _atom_site_label
 _atom_site_symmetry_multiplicity
 _atom_site_fract_x
 _atom_site_fract_y
 _atom_site_fract_z
 _atom_site_occupancy
  Mg  Mg0  1  0.49509696  0.58045610  0.75000000  1
  Mg  Mg1  1  0.99509696  0.91954390  0.25000000  1
  Mg  Mg2  1  0.50490304  0.41954390  0.25000000  1
  Mg  Mg3  1  0.00490304  0.08045610  0.75000000  1
  P  P4  1  0.33768409  0.92650495  0.75000000  1
  P  P5  1  0.83768409  0.57349505  0.25000000  1
  P  P6  1  0.66231591  0.07349505  0.25000000  1
  P  P7  1  0.16231591  0.42650495  0.75000000  1
  P  P8  1  0.20667653  0.21213116  0.10665323  1
  P  P9  1  0.70667653  0.28786884  0.89334677  1
  P  P10  1  0.79332347  0.78786884  0.60665323  1
  P  P11  1  0.29332347  0.71213116  0.39334677  1
  P  P12  1  0.79332347  0.78786884  0.89334677  1
  P  P13  1  0.29332347  0.71213116  0.10665323  1
  P  P14  1  0.20667653  0.21213116  0.39334677  1
  P  P15  1  0.70667653  0.28786884  0.60665323  1
  Si  Si16  1  0.50000000  0.00000000  0.00000000  1
  Si  Si17  1  0.00000000  0.50000000  0.00000000  1
  Si  Si18  1  0.50000000  0.00000000  0.50000000  1
  Si  Si19  1  0.00000000  0.50000000  0.50000000  1
