# generated using pymatgen
data_MnP3Se
_symmetry_space_group_name_H-M   'P 1'
_cell_length_a   5.78254400
_cell_length_b   5.81653900
_cell_length_c   9.34335400
_cell_angle_alpha   90.00000000
_cell_angle_beta   90.00000000
_cell_angle_gamma   90.00000000
_symmetry_Int_Tables_number   1
_chemical_formula_structural   MnP3Se
_chemical_formula_sum   'Mn4 P12 Se4'
_cell_volume   314.25803753
_cell_formula_units_Z   4
loop_
 _symmetry_equiv_pos_site_id
 _symmetry_equiv_pos_as_xyz
  1  'x, y, z'
loop_
 _atom_site_type_symbol
 _atom_site_label
 _atom_site_symmetry_multiplicity
 _atom_site_fract_x
 _atom_site_fract_y
 _atom_site_fract_z
 _atom_site_occupancy
  Mn  Mn0  1  0.50000000  0.00000000  0.00000000  1
  Mn  Mn1  1  0.00000000  0.50000000  0.00000000  1
  Mn  Mn2  1  0.50000000  0.00000000  0.50000000  1
  Mn  Mn3  1  0.00000000  0.50000000  0.50000000  1
  P  P4  1  0.55650655  0.05623866  0.75000000  1
  P  P5  1  0.05650655  0.44376134  0.25000000  1
  P  P6  1  0.44349345  0.94376134  0.25000000  1
  P  P7  1  0.94349345  0.55623866  0.75000000  1
  P  P8  1  0.13885394  0.13970880  0.97134689  1
  P  P9  1  0.63885394  0.36029120  0.02865311  1
  P  P10  1  0.86114606  0.86029120  0.47134689  1
  P  P11  1  0.36114606  0.63970880  0.52865311  1
  P  P12  1  0.86114606  0.86029120  0.02865311  1
  P  P13  1  0.36114606  0.63970880  0.97134689  1
  P  P14  1  0.13885394  0.13970880  0.52865311  1
  P  P15  1  0.63885394  0.36029120  0.47134689  1
  Se  Se16  1  0.98023131  0.00977786  0.75000000  1
  Se  Se17  1  0.48023131  0.49022214  0.25000000  1
  Se  Se18  1  0.01976869  0.99022214  0.25000000  1
  Se  Se19  1  0.51976869  0.50977786  0.75000000  1
