# generated using pymatgen
data_YTiP3
_symmetry_space_group_name_H-M   'P 1'
_cell_length_a   6.94301200
_cell_length_b   7.38639600
_cell_length_c   7.86357000
_cell_angle_alpha   90.00000000
_cell_angle_beta   90.00000000
_cell_angle_gamma   90.00000000
_symmetry_Int_Tables_number   1
_chemical_formula_structural   YTiP3
_chemical_formula_sum   'Y4 Ti4 P12'
_cell_volume   403.27403476
_cell_formula_units_Z   4
loop_
 _symmetry_equiv_pos_site_id
 _symmetry_equiv_pos_as_xyz
  1  'x, y, z'
loop_
 _atom_site_type_symbol
 _atom_site_label
 _atom_site_symmetry_multiplicity
 _atom_site_fract_x
 _atom_site_fract_y
 _atom_site_fract_z
 _atom_site_occupancy
  P  P0  1  0.82599504  0.43758651  0.75000000  1
  P  P1  1  0.32599504  0.06241349  0.25000000  1
  P  P2  1  0.17400496  0.56241349  0.25000000  1
  P  P3  1  0.67400496  0.93758651  0.75000000  1
  P  P4  1  0.31934605  0.29577685  0.89774044  1
  P  P5  1  0.81934605  0.20422315  0.10225956  1
  P  P6  1  0.68065395  0.70422315  0.39774044  1
  P  P7  1  0.18065395  0.79577685  0.60225956  1
  P  P8  1  0.68065395  0.70422315  0.10225956  1
  P  P9  1  0.18065395  0.79577685  0.89774044  1
  P  P10  1  0.31934605  0.29577685  0.60225956  1
  P  P11  1  0.81934605  0.20422315  0.39774044  1
  Ti  Ti12  1  0.00000000  0.50000000  0.00000000  1
  Ti  Ti13  1  0.50000000  0.00000000  0.00000000  1
  Ti  Ti14  1  0.00000000  0.50000000  0.50000000  1
  Ti  Ti15  1  0.50000000  0.00000000  0.50000000  1
  Y  Y16  1  0.01607979  0.11068565  0.75000000  1
  Y  Y17  1  0.51607979  0.38931435  0.25000000  1
  Y  Y18  1  0.98392021  0.88931435  0.25000000  1
  Y  Y19  1  0.48392021  0.61068565  0.75000000  1
