# generated using pymatgen
data_CaSnS3
_symmetry_space_group_name_H-M   'P 1'
_cell_length_a   7.08728000
_cell_length_b   7.12083400
_cell_length_c   9.41987200
_cell_angle_alpha   90.00000000
_cell_angle_beta   90.00000000
_cell_angle_gamma   90.00000000
_symmetry_Int_Tables_number   1
_chemical_formula_structural   CaSnS3
_chemical_formula_sum   'Ca4 Sn4 S12'
_cell_volume   475.39592435
_cell_formula_units_Z   4
loop_
 _symmetry_equiv_pos_site_id
 _symmetry_equiv_pos_as_xyz
  1  'x, y, z'
loop_
 _atom_site_type_symbol
 _atom_site_label
 _atom_site_symmetry_multiplicity
 _atom_site_fract_x
 _atom_site_fract_y
 _atom_site_fract_z
 _atom_site_occupancy
  Ca  Ca0  1  0.17163400  0.69981400  0.50000000  1
  Ca  Ca1  1  0.67163400  0.30018600  0.50000000  1
  Ca  Ca2  1  0.03935000  0.70220300  0.00000000  1
  Ca  Ca3  1  0.53935000  0.29779700  0.00000000  1
  Sn  Sn4  1  0.13616800  0.19545000  0.74437700  1
  Sn  Sn5  1  0.13616800  0.19545000  0.25562300  1
  Sn  Sn6  1  0.63616800  0.80455000  0.25562300  1
  Sn  Sn7  1  0.63616800  0.80455000  0.74437700  1
  S  S8  1  0.51687100  0.89924800  0.50000000  1
  S  S9  1  0.01687100  0.10075200  0.50000000  1
  S  S10  1  0.65012100  0.66757200  0.00000000  1
  S  S11  1  0.15012100  0.33242800  0.00000000  1
  S  S12  1  0.88569600  0.57517200  0.69448900  1
  S  S13  1  0.88569600  0.57517200  0.30551100  1
  S  S14  1  0.38569600  0.42482800  0.30551100  1
  S  S15  1  0.38569600  0.42482800  0.69448900  1
  S  S16  1  0.28419800  0.89018600  0.80329600  1
  S  S17  1  0.28419800  0.89018600  0.19670400  1
  S  S18  1  0.78419800  0.10981400  0.19670400  1
  S  S19  1  0.78419800  0.10981400  0.80329600  1
