# generated using pymatgen
data_BaZrSe3
_symmetry_space_group_name_H-M   'P 1'
_cell_length_a   7.55750347
_cell_length_b   10.48529622
_cell_length_c   7.28444145
_cell_angle_alpha   90.00000000
_cell_angle_beta   90.00000000
_cell_angle_gamma   90.00000000
_symmetry_Int_Tables_number   1
_chemical_formula_structural   BaZrSe3
_chemical_formula_sum   'Ba4 Zr4 Se12'
_cell_volume   577.23853612
_cell_formula_units_Z   4
loop_
 _symmetry_equiv_pos_site_id
 _symmetry_equiv_pos_as_xyz
  1  'x, y, z'
loop_
 _atom_site_type_symbol
 _atom_site_label
 _atom_site_symmetry_multiplicity
 _atom_site_fract_x
 _atom_site_fract_y
 _atom_site_fract_z
 _atom_site_occupancy
  Ba  Ba0  1  0.07006293  0.75000000  0.51913261  1
  Ba  Ba1  1  0.57006293  0.75000000  0.98086739  1
  Ba  Ba2  1  0.42993707  0.25000000  0.01913261  1
  Ba  Ba3  1  0.92993707  0.25000000  0.48086739  1
  Se  Se4  1  0.50409032  0.25000000  0.57568602  1
  Se  Se5  1  0.79760391  0.53906166  0.70059607  1
  Se  Se6  1  0.79760391  0.96093834  0.70059607  1
  Se  Se7  1  0.29760391  0.53906166  0.79940393  1
  Se  Se8  1  0.29760391  0.96093834  0.79940393  1
  Se  Se9  1  0.00409032  0.25000000  0.92431398  1
  Se  Se10  1  0.99590968  0.75000000  0.07568602  1
  Se  Se11  1  0.70239609  0.03906166  0.20059607  1
  Se  Se12  1  0.70239609  0.46093834  0.20059607  1
  Se  Se13  1  0.20239609  0.03906166  0.29940393  1
  Se  Se14  1  0.20239609  0.46093834  0.29940393  1
  Se  Se15  1  0.49590968  0.75000000  0.42431398  1
  Zr  Zr16  1  0.50000000  0.50000000  0.50000000  1
  Zr  Zr17  1  0.50000000  0.00000000  0.50000000  1
  Zr  Zr18  1  0.00000000  0.50000000  0.00000000  1
  Zr  Zr19  1  0.00000000  0.00000000  0.00000000  1
