# generated using pymatgen
data_LiNdO3
_symmetry_space_group_name_H-M   'P 1'
_cell_length_a   5.13057872
_cell_length_b   5.81277217
_cell_length_c   7.48692492
_cell_angle_alpha   90.00000000
_cell_angle_beta   90.00000000
_cell_angle_gamma   90.00000000
_symmetry_Int_Tables_number   1
_chemical_formula_structural   LiNdO3
_chemical_formula_sum   'Li4 Nd4 O12'
_cell_volume   223.28170238
_cell_formula_units_Z   4
loop_
 _symmetry_equiv_pos_site_id
 _symmetry_equiv_pos_as_xyz
  1  'x, y, z'
loop_
 _atom_site_type_symbol
 _atom_site_label
 _atom_site_symmetry_multiplicity
 _atom_site_fract_x
 _atom_site_fract_y
 _atom_site_fract_z
 _atom_site_occupancy
  Li  Li0  1  0.50000012  0.00000000  0.00000000  1
  Li  Li1  1  0.00000000  0.50000067  0.00000000  1
  Li  Li2  1  0.50000012  0.00000000  0.49999967  1
  Li  Li3  1  0.00000000  0.50000067  0.49999967  1
  Nd  Nd4  1  0.96703906  0.09522651  0.24999984  1
  Nd  Nd5  1  0.53295937  0.59522546  0.24999984  1
  Nd  Nd6  1  0.46703893  0.40477416  0.75000084  1
  Nd  Nd7  1  0.03295924  0.90477312  0.75000084  1
  O  O8  1  0.67326323  0.29379269  0.04349316  1
  O  O9  1  0.82673520  0.79379337  0.04349316  1
  O  O10  1  0.43390037  0.02407801  0.24999984  1
  O  O11  1  0.06609781  0.52407869  0.24999984  1
  O  O12  1  0.67326323  0.29379269  0.45650518  1
  O  O13  1  0.82673520  0.79379337  0.45650518  1
  O  O14  1  0.17326505  0.20620626  0.54349416  1
  O  O15  1  0.32673507  0.70620693  0.54349416  1
  O  O16  1  0.93390049  0.47592094  0.75000084  1
  O  O17  1  0.56609793  0.97592161  0.75000084  1
  O  O18  1  0.17326505  0.20620626  0.95650485  1
  O  O19  1  0.32673507  0.70620693  0.95650485  1
