# generated using pymatgen
data_NpTaO3
_symmetry_space_group_name_H-M   'P 1'
_cell_length_a   5.48717506
_cell_length_b   6.02436569
_cell_length_c   7.79259961
_cell_angle_alpha   90.00000000
_cell_angle_beta   90.00000000
_cell_angle_gamma   90.00000000
_symmetry_Int_Tables_number   1
_chemical_formula_structural   NpTaO3
_chemical_formula_sum   'Np4 Ta4 O12'
_cell_volume   257.59801088
_cell_formula_units_Z   4
loop_
 _symmetry_equiv_pos_site_id
 _symmetry_equiv_pos_as_xyz
  1  'x, y, z'
loop_
 _atom_site_type_symbol
 _atom_site_label
 _atom_site_symmetry_multiplicity
 _atom_site_fract_x
 _atom_site_fract_y
 _atom_site_fract_z
 _atom_site_occupancy
  Np  Np0  1  0.96820129  0.07763141  0.25000001  1
  Np  Np1  1  0.53179641  0.57763094  0.25000001  1
  Np  Np2  1  0.46820267  0.42236978  0.75000004  1
  Np  Np3  1  0.03179778  0.92236931  0.75000004  1
  O  O4  1  0.68927635  0.29606768  0.03986475  1
  O  O5  1  0.81072135  0.79606887  0.03986475  1
  O  O6  1  0.12731870  0.45991564  0.25000001  1
  O  O7  1  0.37268175  0.95991517  0.25000001  1
  O  O8  1  0.68927635  0.29606768  0.46013528  1
  O  O9  1  0.81072135  0.79606887  0.46013528  1
  O  O10  1  0.18927772  0.20393184  0.53986349  1
  O  O11  1  0.31072273  0.70393303  0.53986349  1
  O  O12  1  0.62731915  0.04008555  0.75000004  1
  O  O13  1  0.87268220  0.54008342  0.75000004  1
  O  O14  1  0.18927772  0.20393184  0.96013659  1
  O  O15  1  0.31072273  0.70393303  0.96013659  1
  Ta  Ta16  1  0.50000045  0.00000000  0.00000000  1
  Ta  Ta17  1  0.00000000  0.49999953  0.00000000  1
  Ta  Ta18  1  0.50000045  0.00000000  0.50000003  1
  Ta  Ta19  1  0.00000000  0.49999953  0.50000003  1
