# generated using pymatgen
data_CsSiI3
_symmetry_space_group_name_H-M   'P 1'
_cell_length_a   6.13359212
_cell_length_b   6.13359212
_cell_length_c   6.13359198
_cell_angle_alpha   87.52193411
_cell_angle_beta   87.52193411
_cell_angle_gamma   87.52193314
_symmetry_Int_Tables_number   1
_chemical_formula_structural   CsSiI3
_chemical_formula_sum   'Cs1 Si1 I3'
_cell_volume   230.12230300
_cell_formula_units_Z   1
loop_
 _symmetry_equiv_pos_site_id
 _symmetry_equiv_pos_as_xyz
  1  'x, y, z'
loop_
 _atom_site_type_symbol
 _atom_site_label
 _atom_site_symmetry_multiplicity
 _atom_site_fract_x
 _atom_site_fract_y
 _atom_site_fract_z
 _atom_site_occupancy
  Cs  Cs0  1  0.00101200  0.00101200  0.00101200  1
  Si  Si1  1  0.46266700  0.46266700  0.46266700  1
  I  I2  1  0.02938400  0.50187600  0.50187600  1
  I  I3  1  0.50187600  0.50187600  0.02938400  1
  I  I4  1  0.50187600  0.02938400  0.50187600  1
