# generated using pymatgen
data_GdGaO3
_symmetry_space_group_name_H-M   'P 1'
_cell_length_a   5.37317100
_cell_length_b   5.61965200
_cell_length_c   7.70335400
_cell_angle_alpha   90.00000000
_cell_angle_beta   90.00000000
_cell_angle_gamma   90.00000000
_symmetry_Int_Tables_number   1
_chemical_formula_structural   GdGaO3
_chemical_formula_sum   'Gd4 Ga4 O12'
_cell_volume   232.60547911
_cell_formula_units_Z   4
loop_
 _symmetry_equiv_pos_site_id
 _symmetry_equiv_pos_as_xyz
  1  'x, y, z'
loop_
 _atom_site_type_symbol
 _atom_site_label
 _atom_site_symmetry_multiplicity
 _atom_site_fract_x
 _atom_site_fract_y
 _atom_site_fract_z
 _atom_site_occupancy
  Gd  Gd0  1  0.01691700  0.93692400  0.75000000  1
  Gd  Gd1  1  0.51691700  0.56307600  0.25000000  1
  Gd  Gd2  1  0.48308300  0.43692400  0.75000000  1
  Gd  Gd3  1  0.98308300  0.06307600  0.25000000  1
  Ga  Ga4  1  0.00000000  0.50000000  0.50000000  1
  Ga  Ga5  1  0.50000000  0.00000000  0.50000000  1
  Ga  Ga6  1  0.50000000  0.00000000  0.00000000  1
  Ga  Ga7  1  0.00000000  0.50000000  0.00000000  1
  O  O8  1  0.69872200  0.30102400  0.44709100  1
  O  O9  1  0.19872200  0.19897600  0.55290900  1
  O  O10  1  0.80127800  0.80102500  0.05290900  1
  O  O11  1  0.30127800  0.69897500  0.94709100  1
  O  O12  1  0.30127800  0.69897500  0.55290900  1
  O  O13  1  0.80127800  0.80102500  0.44709100  1
  O  O14  1  0.19872200  0.19897600  0.94709100  1
  O  O15  1  0.69872200  0.30102400  0.05290900  1
  O  O16  1  0.10196800  0.46766800  0.25000000  1
  O  O17  1  0.60196800  0.03233200  0.75000000  1
  O  O18  1  0.39803200  0.96766800  0.25000000  1
  O  O19  1  0.89803200  0.53233200  0.75000000  1
